version 3
run Standalone-0-20231214-11:39:54-8194
attr configname Standalone
attr datetime 20231214-11:39:54
attr datetimef 20231214-113954
attr experiment Standalone
attr inifile omnetpp.ini
attr iterationvars ""
attr iterationvarsd ""
attr iterationvarsf ""
attr measurement ""
attr network simu5g.simulations.NR.networks.SingleCell_Standalone
attr processid 8194
attr repetition 0
attr replication #0
attr resultdir results
attr runnumber 0
attr seedset 0
config image-path ../../../images:../../../../inet4.4/images:../../../../veins_inet/images:../../../../veins-veins-5.2/images
config network simu5g.simulations.NR.networks.SingleCell_Standalone
config sim-time-limit 20s
config *.gnb.mobility.initialX 250m
config *.gnb.mobility.initialY 250m
config *.gnb2.mobility.initialX 450m
config *.gnb2.mobility.initialY 450m
config *.numUe 25
config *.ue[0].macCellId 1
config *.ue[0].masterId 1
config *.ue[0].nrMacCellId 1
config *.ue[0].nrMasterId 1
config *.ue[1].macCellId 1
config *.ue[1].masterId 1
config *.ue[1].nrMacCellId 1
config *.ue[1].nrMasterId 1
config *.ue[2].macCellId 1
config *.ue[2].masterId 1
config *.ue[2].nrMacCellId 1
config *.ue[2].nrMasterId 1
config *.ue[3].macCellId 1
config *.ue[3].masterId 1
config *.ue[3].nrMacCellId 1
config *.ue[3].nrMasterId 1
config *.ue[4].macCellId 1
config *.ue[4].masterId 1
config *.ue[4].nrMacCellId 1
config *.ue[4].nrMasterId 1
config *.ue[5].macCellId 1
config *.ue[5].masterId 1
config *.ue[5].nrMacCellId 1
config *.ue[5].nrMasterId 1
config *.ue[6].macCellId 1
config *.ue[6].masterId 1
config *.ue[6].nrMacCellId 1
config *.ue[6].nrMasterId 1
config *.ue[7].macCellId 1
config *.ue[7].masterId 1
config *.ue[7].nrMacCellId 1
config *.ue[7].nrMasterId 1
config *.ue[8].macCellId 1
config *.ue[8].masterId 1
config *.ue[8].nrMacCellId 1
config *.ue[8].nrMasterId 1
config *.ue[9].macCellId 1
config *.ue[9].masterId 1
config *.ue[9].nrMacCellId 1
config *.ue[9].nrMasterId 1
config *.ue[10].macCellId 1
config *.ue[10].masterId 1
config *.ue[10].nrMacCellId 1
config *.ue[10].nrMasterId 1
config *.ue[11].macCellId 1
config *.ue[11].masterId 1
config *.ue[11].nrMacCellId 1
config *.ue[11].nrMasterId 1
config *.ue[12].macCellId 1
config *.ue[12].masterId 1
config *.ue[12].nrMacCellId 1
config *.ue[12].nrMasterId 1
config *.ue[13].macCellId 1
config *.ue[13].masterId 1
config *.ue[13].nrMacCellId 1
config *.ue[13].nrMasterId 1
config *.ue[14].macCellId 2
config *.ue[14].masterId 2
config *.ue[14].nrMacCellId 2
config *.ue[14].nrMasterId 2
config *.ue[15].macCellId 2
config *.ue[15].masterId 2
config *.ue[15].nrMacCellId 2
config *.ue[15].nrMasterId 2
config *.ue[16].macCellId 1
config *.ue[16].masterId 1
config *.ue[16].nrMacCellId 1
config *.ue[16].nrMasterId 1
config *.ue[17].macCellId 1
config *.ue[17].masterId 1
config *.ue[17].nrMacCellId 1
config *.ue[17].nrMasterId 1
config *.ue[18].macCellId 1
config *.ue[18].masterId 1
config *.ue[18].nrMacCellId 1
config *.ue[18].nrMasterId 1
config *.ue[19].macCellId 1
config *.ue[19].masterId 1
config *.ue[19].nrMacCellId 1
config *.ue[19].nrMasterId 1
config *.ue[20].macCellId 2
config *.ue[20].masterId 2
config *.ue[20].nrMacCellId 2
config *.ue[20].nrMasterId 2
config *.ue[21].macCellId 2
config *.ue[21].masterId 2
config *.ue[21].nrMacCellId 2
config *.ue[21].nrMasterId 2
config *.ue[22].macCellId 2
config *.ue[22].masterId 2
config *.ue[22].nrMacCellId 2
config *.ue[22].nrMasterId 2
config *.ue[23].macCellId 2
config *.ue[23].masterId 2
config *.ue[23].nrMacCellId 2
config *.ue[23].nrMasterId 2
config *.ue[24].macCellId 2
config *.ue[24].masterId 2
config *.ue[24].nrMacCellId 2
config *.ue[24].nrMasterId 2
config *.ue[0].mobility.initialX 54m
config *.ue[0].mobility.initialY 88m
config *.ue[1].mobility.initialX 68m
config *.ue[1].mobility.initialY 72m
config *.ue[2].mobility.initialX 361m
config *.ue[2].mobility.initialY 110m
config *.ue[3].mobility.initialX 71m
config *.ue[3].mobility.initialY 362m
config *.ue[4].mobility.initialX 48m
config *.ue[4].mobility.initialY 46m
config *.ue[5].mobility.initialX 56m
config *.ue[5].mobility.initialY 325m
config *.ue[6].mobility.initialX 308m
config *.ue[6].mobility.initialY 331m
config *.ue[7].mobility.initialX 287m
config *.ue[7].mobility.initialY 19m
config *.ue[8].mobility.initialX 354m
config *.ue[8].mobility.initialY 346m
config *.ue[9].mobility.initialX 38m
config *.ue[9].mobility.initialY 65m
config *.ue[10].mobility.initialX 29m
config *.ue[10].mobility.initialY 399m
config *.ue[11].mobility.initialX 462m
config *.ue[11].mobility.initialY 257m
config *.ue[12].mobility.initialX 250m
config *.ue[12].mobility.initialY 146m
config *.ue[13].mobility.initialX 442m
config *.ue[13].mobility.initialY 211m
config *.ue[14].mobility.initialX 187m
config *.ue[14].mobility.initialY 364m
config *.ue[15].mobility.initialX 131m
config *.ue[15].mobility.initialY 16m
config *.ue[16].mobility.initialX 447m
config *.ue[16].mobility.initialY 92m
config *.ue[17].mobility.initialX 462m
config *.ue[17].mobility.initialY 367m
config *.ue[18].mobility.initialX 282m
config *.ue[18].mobility.initialY 78m
config *.ue[19].mobility.initialX 227m
config *.ue[19].mobility.initialY 314m
config *.ue[20].mobility.initialX 232m
config *.ue[20].mobility.initialY 129m
config *.ue[21].mobility.initialX 476m
config *.ue[21].mobility.initialY 306m
config *.ue[22].mobility.initialX 201m
config *.ue[22].mobility.initialY 465m
config *.ue[23].mobility.initialX 72m
config *.ue[23].mobility.initialY 402m
config *.ue[24].mobility.initialX 94m
config *.ue[24].mobility.initialY 270m
config image-path ../../../images
config output-scalar-file-append false
config sim-time-limit 20s
config **.routingRecorder.enabled false
config output-scalar-file results/Standalone/0.sca
config output-vector-file results/Standalone/0.vec
config seed-set 0
config **.vector-recording false
config **.mobility.constraintAreaMaxX 500m
config **.mobility.constraintAreaMaxY 500m
config **.mobility.constraintAreaMinX 0m
config **.mobility.constraintAreaMinY 0m
config **.mobility.constraintAreaMinZ 0m
config **.mobility.constraintAreaMaxZ 0m
config **.mobility.initFromDisplayString false
config **.numBands 50
config **.ueTxPower 20
config **.eNodeBTxPower 30
config **.targetBler 0.01
config **.blerShift 5
config *.configurator.config "xmldoc(\"./demo.xml\")"

par SingleCell_Standalone.server.pppg$o[0].channel typename "\"inet.node.ethernet.Eth10G\""
par SingleCell_Standalone.server.pppg$o[0].channel disabled false
attr mutable ""
par SingleCell_Standalone.server.pppg$o[0].channel delay 5e-08s
attr mutable ""
attr unit s
par SingleCell_Standalone.server.pppg$o[0].channel datarate 1e+10bps
attr mutable ""
attr unit bps
par SingleCell_Standalone.server.pppg$o[0].channel ber 0
attr mutable ""
par SingleCell_Standalone.server.pppg$o[0].channel per 0
attr mutable ""
par SingleCell_Standalone.server.pppg$o[0].channel length 10m
attr unit m
par SingleCell_Standalone.router.pppg$o[0].channel typename "\"inet.node.ethernet.Eth10G\""
par SingleCell_Standalone.router.pppg$o[0].channel disabled false
attr mutable ""
par SingleCell_Standalone.router.pppg$o[0].channel delay 5e-08s
attr mutable ""
attr unit s
par SingleCell_Standalone.router.pppg$o[0].channel datarate 1e+10bps
attr mutable ""
attr unit bps
par SingleCell_Standalone.router.pppg$o[0].channel ber 0
attr mutable ""
par SingleCell_Standalone.router.pppg$o[0].channel per 0
attr mutable ""
par SingleCell_Standalone.router.pppg$o[0].channel length 10m
attr unit m
par SingleCell_Standalone.router.pppg$o[1].channel typename "\"inet.node.ethernet.Eth10G\""
par SingleCell_Standalone.router.pppg$o[1].channel disabled false
attr mutable ""
par SingleCell_Standalone.router.pppg$o[1].channel delay 5e-08s
attr mutable ""
attr unit s
par SingleCell_Standalone.router.pppg$o[1].channel datarate 1e+10bps
attr mutable ""
attr unit bps
par SingleCell_Standalone.router.pppg$o[1].channel ber 0
attr mutable ""
par SingleCell_Standalone.router.pppg$o[1].channel per 0
attr mutable ""
par SingleCell_Standalone.router.pppg$o[1].channel length 10m
attr unit m
par SingleCell_Standalone.upf.filterGate$o.channel typename "\"inet.node.ethernet.Eth10G\""
par SingleCell_Standalone.upf.filterGate$o.channel disabled false
attr mutable ""
par SingleCell_Standalone.upf.filterGate$o.channel delay 5e-08s
attr mutable ""
attr unit s
par SingleCell_Standalone.upf.filterGate$o.channel datarate 1e+10bps
attr mutable ""
attr unit bps
par SingleCell_Standalone.upf.filterGate$o.channel ber 0
attr mutable ""
par SingleCell_Standalone.upf.filterGate$o.channel per 0
attr mutable ""
par SingleCell_Standalone.upf.filterGate$o.channel length 10m
attr unit m
par SingleCell_Standalone.upf.pppg$o[0].channel typename "\"inet.node.ethernet.Eth10G\""
par SingleCell_Standalone.upf.pppg$o[0].channel disabled false
attr mutable ""
par SingleCell_Standalone.upf.pppg$o[0].channel delay 5e-08s
attr mutable ""
attr unit s
par SingleCell_Standalone.upf.pppg$o[0].channel datarate 1e+10bps
attr mutable ""
attr unit bps
par SingleCell_Standalone.upf.pppg$o[0].channel ber 0
attr mutable ""
par SingleCell_Standalone.upf.pppg$o[0].channel per 0
attr mutable ""
par SingleCell_Standalone.upf.pppg$o[0].channel length 10m
attr unit m
par SingleCell_Standalone.iUpf.pppg$o[0].channel typename "\"inet.node.ethernet.Eth10G\""
par SingleCell_Standalone.iUpf.pppg$o[0].channel disabled false
attr mutable ""
par SingleCell_Standalone.iUpf.pppg$o[0].channel delay 5e-08s
attr mutable ""
attr unit s
par SingleCell_Standalone.iUpf.pppg$o[0].channel datarate 1e+10bps
attr mutable ""
attr unit bps
par SingleCell_Standalone.iUpf.pppg$o[0].channel ber 0
attr mutable ""
par SingleCell_Standalone.iUpf.pppg$o[0].channel per 0
attr mutable ""
par SingleCell_Standalone.iUpf.pppg$o[0].channel length 10m
attr unit m
par SingleCell_Standalone.iUpf.pppg$o[1].channel typename "\"inet.node.ethernet.Eth10G\""
par SingleCell_Standalone.iUpf.pppg$o[1].channel disabled false
attr mutable ""
par SingleCell_Standalone.iUpf.pppg$o[1].channel delay 5e-08s
attr mutable ""
attr unit s
par SingleCell_Standalone.iUpf.pppg$o[1].channel datarate 1e+10bps
attr mutable ""
attr unit bps
par SingleCell_Standalone.iUpf.pppg$o[1].channel ber 0
attr mutable ""
par SingleCell_Standalone.iUpf.pppg$o[1].channel per 0
attr mutable ""
par SingleCell_Standalone.iUpf.pppg$o[1].channel length 10m
attr unit m
par SingleCell_Standalone.gnb.ppp$o.channel typename "\"inet.node.ethernet.Eth10G\""
par SingleCell_Standalone.gnb.ppp$o.channel disabled false
attr mutable ""
par SingleCell_Standalone.gnb.ppp$o.channel delay 5e-08s
attr mutable ""
attr unit s
par SingleCell_Standalone.gnb.ppp$o.channel datarate 1e+10bps
attr mutable ""
attr unit bps
par SingleCell_Standalone.gnb.ppp$o.channel ber 0
attr mutable ""
par SingleCell_Standalone.gnb.ppp$o.channel per 0
attr mutable ""
par SingleCell_Standalone.gnb.ppp$o.channel length 10m
attr unit m
par SingleCell_Standalone.iUpf.pppg$o[2].channel typename "\"inet.node.ethernet.Eth10G\""
par SingleCell_Standalone.iUpf.pppg$o[2].channel disabled false
attr mutable ""
par SingleCell_Standalone.iUpf.pppg$o[2].channel delay 5e-08s
attr mutable ""
attr unit s
par SingleCell_Standalone.iUpf.pppg$o[2].channel datarate 1e+10bps
attr mutable ""
attr unit bps
par SingleCell_Standalone.iUpf.pppg$o[2].channel ber 0
attr mutable ""
par SingleCell_Standalone.iUpf.pppg$o[2].channel per 0
attr mutable ""
par SingleCell_Standalone.iUpf.pppg$o[2].channel length 10m
attr unit m
par SingleCell_Standalone.gnb2.ppp$o.channel typename "\"inet.node.ethernet.Eth10G\""
par SingleCell_Standalone.gnb2.ppp$o.channel disabled false
attr mutable ""
par SingleCell_Standalone.gnb2.ppp$o.channel delay 5e-08s
attr mutable ""
attr unit s
par SingleCell_Standalone.gnb2.ppp$o.channel datarate 1e+10bps
attr mutable ""
attr unit bps
par SingleCell_Standalone.gnb2.ppp$o.channel ber 0
attr mutable ""
par SingleCell_Standalone.gnb2.ppp$o.channel per 0
attr mutable ""
par SingleCell_Standalone.gnb2.ppp$o.channel length 10m
attr unit m
par SingleCell_Standalone.channelControl typename "\"simu5g.world.radio.LteChannelControl\""
par SingleCell_Standalone.channelControl coreDebug false
par SingleCell_Standalone.channelControl pMax 20mW
attr unit mW
par SingleCell_Standalone.channelControl sat -110dBm
attr unit dBm
par SingleCell_Standalone.channelControl alpha 2
par SingleCell_Standalone.channelControl carrierFrequency 2.4e+09Hz
attr unit Hz
par SingleCell_Standalone.channelControl numChannels 1
par SingleCell_Standalone.channelControl propagationModel "\"FreeSpaceModel\""
attr enum FreeSpaceModel,TwoRayGroundModel,RiceModel,RayleighModel,NakagamiModel,LogNormalShadowingModel
par SingleCell_Standalone.routingRecorder typename "\"inet.networklayer.ipv4.RoutingTableRecorder\""
par SingleCell_Standalone.routingRecorder enabled false
par SingleCell_Standalone.configurator typename "\"inet.networklayer.configurator.ipv4.Ipv4NetworkConfigurator\""
par SingleCell_Standalone.configurator minLinkWeight 0.001
par SingleCell_Standalone.configurator configureIsolatedNetworksSeparatly false
par SingleCell_Standalone.configurator config "<config>...</config> at /home/simu5g/simu5g-workspace/simu5G/simulations/NR/standalone//./demo.xml:1"
par SingleCell_Standalone.configurator assignAddresses true
par SingleCell_Standalone.configurator assignUniqueAddresses true
par SingleCell_Standalone.configurator assignDisjunctSubnetAddresses true
par SingleCell_Standalone.configurator addStaticRoutes true
par SingleCell_Standalone.configurator addDefaultRoutes true
par SingleCell_Standalone.configurator addSubnetRoutes true
par SingleCell_Standalone.configurator addDirectRoutes true
par SingleCell_Standalone.configurator optimizeRoutes true
par SingleCell_Standalone.configurator dumpTopology false
par SingleCell_Standalone.configurator dumpLinks false
par SingleCell_Standalone.configurator dumpAddresses false
par SingleCell_Standalone.configurator dumpRoutes false
par SingleCell_Standalone.configurator dumpConfig "\"\""
par SingleCell_Standalone.binder typename "\"simu5g.common.binder.Binder\""
par SingleCell_Standalone.binder blerShift 5
par SingleCell_Standalone.binder maxDataRatePerRb 1.16Mbps
attr unit Mbps
par SingleCell_Standalone.binder printTrafficGeneratorConfig false
par SingleCell_Standalone.carrierAggregation.componentCarrier[0] typename "\"simu5g.common.carrierAggregation.ComponentCarrier\""
par SingleCell_Standalone.carrierAggregation.componentCarrier[0] carrierFrequency 2GHz
attr unit GHz
par SingleCell_Standalone.carrierAggregation.componentCarrier[0] numBands 50
par SingleCell_Standalone.carrierAggregation.componentCarrier[0] numerologyIndex 0
par SingleCell_Standalone.carrierAggregation.componentCarrier[0] useTdd false
par SingleCell_Standalone.carrierAggregation.componentCarrier[0] tddNumSymbolsDl 7
par SingleCell_Standalone.carrierAggregation.componentCarrier[0] tddNumSymbolsUl 7
par SingleCell_Standalone.carrierAggregation typename "\"simu5g.common.carrierAggregation.CarrierAggregation\""
par SingleCell_Standalone.carrierAggregation numComponentCarriers 1
par SingleCell_Standalone.server.pppg$i[0].channel typename "\"ned.IdealChannel\""
par SingleCell_Standalone.server.ppp[0].phys$o.channel typename "\"ned.IdealChannel\""
par SingleCell_Standalone.server.interfaceTable typename "\"inet.networklayer.common.InterfaceTable\""
par SingleCell_Standalone.server.interfaceTable displayAddresses false
par SingleCell_Standalone.server.cb typename "\"inet.common.MessageDispatcher\""
par SingleCell_Standalone.server.cb displayStringTextFormat "\"processed %p pk (%l)\""
par SingleCell_Standalone.server.cb forwardServiceRegistration true
par SingleCell_Standalone.server.cb forwardProtocolRegistration true
par SingleCell_Standalone.server.bl typename "\"inet.common.MessageDispatcher\""
par SingleCell_Standalone.server.bl displayStringTextFormat "\"processed %p pk (%l)\""
par SingleCell_Standalone.server.bl forwardServiceRegistration true
par SingleCell_Standalone.server.bl forwardProtocolRegistration true
par SingleCell_Standalone.server.li typename "\"inet.common.MessageDispatcher\""
par SingleCell_Standalone.server.li displayStringTextFormat "\"processed %p pk (%l)\""
par SingleCell_Standalone.server.li forwardServiceRegistration true
par SingleCell_Standalone.server.li forwardProtocolRegistration true
par SingleCell_Standalone.server.lo[0].upperLayerIn.channel typename "\"ned.IdealChannel\""
par SingleCell_Standalone.server.lo[0].lo.upperLayerOut.channel typename "\"ned.IdealChannel\""
par SingleCell_Standalone.server.lo[0].lo typename "\"inet.linklayer.loopback.Loopback\""
par SingleCell_Standalone.server.lo[0].lo interfaceTableModule "\"SingleCell_Standalone.server.interfaceTable\""
par SingleCell_Standalone.server.lo[0].lo mtu 4470B
attr unit B
scalar SingleCell_Standalone.server.lo[0].lo rcvdPkFromHl:count 0
attr interpolationmode none
attr recordingmode count
attr source packetReceivedFromUpper
attr title "packets received from higher layer, count"
scalar SingleCell_Standalone.server.lo[0].lo rcvdPkFromHl:sum(packetBytes) 0
attr interpolationmode none
attr recordingmode sum(packetBytes)
attr source packetReceivedFromUpper
attr title "packets received from higher layer, sum(packetBytes)"
scalar SingleCell_Standalone.server.lo[0].lo passedUpPk:count 0
attr interpolationmode none
attr recordingmode count
attr source packetSentToUpper
attr title "packets passed to higher layer, count"
scalar SingleCell_Standalone.server.lo[0].lo passedUpPk:sum(packetBytes) 0
attr interpolationmode none
attr recordingmode sum(packetBytes)
attr source packetSentToUpper
attr title "packets passed to higher layer, sum(packetBytes)"
par SingleCell_Standalone.server.lo[0] typename "\"inet.linklayer.loopback.LoopbackInterface\""
par SingleCell_Standalone.server.lo[0] displayStringTextFormat "\"%a (%i)\\n%m\""
par SingleCell_Standalone.server.lo[0] recordPcap false
par SingleCell_Standalone.server.lo[0] numPcapRecorders 0
par SingleCell_Standalone.server.lo[0] interfaceTableModule "\"SingleCell_Standalone.server.interfaceTable\""
scalar SingleCell_Standalone.server.lo[0] packetDropInterfaceDown:count 0
attr interpolationmode none
attr recordingmode count
attr source packetDropReasonIsInterfaceDown(packetDropped)
attr title "packet drops: interface down, count"
scalar SingleCell_Standalone.server.lo[0] packetDropInterfaceDown:sum(packetBytes) 0
attr interpolationmode none
attr recordingmode sum(packetBytes)
attr source packetDropReasonIsInterfaceDown(packetDropped)
attr title "packet drops: interface down, sum(packetBytes)"
scalar SingleCell_Standalone.server.lo[0] packetDropNoCarrier:count 0
attr interpolationmode none
attr recordingmode count
attr source packetDropReasonIsNoCarrier(packetDropped)
attr title "packet drops: no carrier, count"
scalar SingleCell_Standalone.server.lo[0] packetDropNoCarrier:sum(packetBytes) 0
attr interpolationmode none
attr recordingmode sum(packetBytes)
attr source packetDropReasonIsNoCarrier(packetDropped)
attr title "packet drops: no carrier, sum(packetBytes)"
par SingleCell_Standalone.server.ppp[0].phys$i.channel typename "\"ned.IdealChannel\""
par SingleCell_Standalone.server.ppp[0].ppp.phys$o.channel typename "\"ned.IdealChannel\""
par SingleCell_Standalone.server.ppp[0].ppp.upperLayerOut.channel typename "\"ned.IdealChannel\""
par SingleCell_Standalone.server.ppp[0].upperLayerIn.channel typename "\"ned.IdealChannel\""
par SingleCell_Standalone.server.ppp[0].queue typename "\"inet.queueing.queue.DropTailQueue\""
par SingleCell_Standalone.server.ppp[0].queue displayStringTextFormat "\"contains %p pk (%l) pushed %u\\npulled %o removed %r dropped %d\""
par SingleCell_Standalone.server.ppp[0].queue packetCapacity 10000
par SingleCell_Standalone.server.ppp[0].queue dataCapacity -1b
attr unit b
par SingleCell_Standalone.server.ppp[0].queue dropperClass "\"inet::queueing::PacketAtCollectionEndDropper\""
par SingleCell_Standalone.server.ppp[0].queue comparatorClass "\"\""
par SingleCell_Standalone.server.ppp[0].queue bufferModule "\"\""
scalar SingleCell_Standalone.server.ppp[0].queue queueLength:last nan
attr autoWarmupFilter false
attr interpolationmode sample-hold
attr recordingmode last
attr source "warmup(atomic(constant0(packetPushEnded) + count(packetPushStarted) - count(packetPulled) - count(packetRemoved) - count(packetDropped)))"
attr title "queue length, last"
attr unit pk
scalar SingleCell_Standalone.server.ppp[0].queue queueLength:max nan
attr autoWarmupFilter false
attr interpolationmode sample-hold
attr recordingmode max
attr source "warmup(atomic(constant0(packetPushEnded) + count(packetPushStarted) - count(packetPulled) - count(packetRemoved) - count(packetDropped)))"
attr title "queue length, max"
attr unit pk
scalar SingleCell_Standalone.server.ppp[0].queue queueLength:timeavg -nan
attr autoWarmupFilter false
attr interpolationmode sample-hold
attr recordingmode timeavg
attr source "warmup(atomic(constant0(packetPushEnded) + count(packetPushStarted) - count(packetPulled) - count(packetRemoved) - count(packetDropped)))"
attr title "queue length, timeavg"
attr unit pk
scalar SingleCell_Standalone.server.ppp[0].queue queueBitLength:last nan
attr autoWarmupFilter false
attr interpolationmode sample-hold
attr recordingmode last
attr source "warmup(atomic(constant0(packetPushEnded) + sum(packetLength(packetPushStarted)) - sum(packetLength(packetPulled)) - sum(packetLength(packetRemoved)) - sum(packetLength(packetDropped))))"
attr title "queue bit length, last"
attr unit b
scalar SingleCell_Standalone.server.ppp[0].queue queueBitLength:max nan
attr autoWarmupFilter false
attr interpolationmode sample-hold
attr recordingmode max
attr source "warmup(atomic(constant0(packetPushEnded) + sum(packetLength(packetPushStarted)) - sum(packetLength(packetPulled)) - sum(packetLength(packetRemoved)) - sum(packetLength(packetDropped))))"
attr title "queue bit length, max"
attr unit b
scalar SingleCell_Standalone.server.ppp[0].queue queueBitLength:timeavg -nan
attr autoWarmupFilter false
attr interpolationmode sample-hold
attr recordingmode timeavg
attr source "warmup(atomic(constant0(packetPushEnded) + sum(packetLength(packetPushStarted)) - sum(packetLength(packetPulled)) - sum(packetLength(packetRemoved)) - sum(packetLength(packetDropped))))"
attr title "queue bit length, timeavg"
attr unit b
statistic SingleCell_Standalone.server.ppp[0].queue queueingTime:histogram
field count 0
field mean -nan
field stddev nan
field min nan
field max nan
field sum 0
field sqrsum 0
attr interpolationmode none
attr recordingmode histogram
attr source queueingTime(packetPulled)
attr title "queueing times"
attr unit s
bin	-inf	0
bin	0	0
bin	1	0
scalar SingleCell_Standalone.server.ppp[0].queue outgoingPackets:count 0
attr recordingmode count
attr source packetPulled
attr title "outgoing packets, count"
attr unit pk
scalar SingleCell_Standalone.server.ppp[0].queue outgoingPacketLengths:sum 0
attr interpolationmode none
attr recordingmode sum
attr source packetLength(packetPulled)
attr title "outgoing packet lengths, sum"
attr unit b
statistic SingleCell_Standalone.server.ppp[0].queue outgoingPacketLengths:histogram
field count 0
field mean -nan
field stddev nan
field min nan
field max nan
field sum 0
field sqrsum 0
attr interpolationmode none
attr recordingmode histogram
attr source packetLength(packetPulled)
attr title "outgoing packet lengths"
attr unit b
bin	-inf	0
bin	0	0
bin	1	0
statistic SingleCell_Standalone.server.ppp[0].queue flowQueueingTime:histogram
field count 0
field mean -nan
field stddev nan
field min nan
field max nan
field sum 0
field sqrsum 0
attr interpolationmode none
attr recordingmode histogram
attr source queueingTime(demuxFlow(packetPulled))
attr title "flow queueing times"
attr unit s
bin	-inf	0
bin	0	0
bin	1	0
scalar SingleCell_Standalone.server.ppp[0].queue incomingPackets:count 0
attr recordingmode count
attr source packetPushStarted
attr title "incoming packets, count"
attr unit pk
scalar SingleCell_Standalone.server.ppp[0].queue incomingPacketLengths:sum 0
attr interpolationmode none
attr recordingmode sum
attr source packetLength(packetPushStarted)
attr title "incoming packet lengths, sum"
attr unit b
statistic SingleCell_Standalone.server.ppp[0].queue incomingPacketLengths:histogram
field count 0
field mean -nan
field stddev nan
field min nan
field max nan
field sum 0
field sqrsum 0
attr interpolationmode none
attr recordingmode histogram
attr source packetLength(packetPushStarted)
attr title "incoming packet lengths"
attr unit b
bin	-inf	0
bin	0	0
bin	1	0
scalar SingleCell_Standalone.server.ppp[0].queue droppedPacketsQueueOverflow:count 0
attr interpolationmode none
attr recordingmode count
attr source packetDropReasonIsQueueOverflow(packetDropped)
attr title "dropped packets: queue overflow, count"
attr unit pk
scalar SingleCell_Standalone.server.ppp[0].queue droppedPacketLengthsQueueOverflow:sum 0
attr interpolationmode none
attr recordingmode sum
attr source packetLength(packetDropReasonIsQueueOverflow(packetDropped))
attr title "dropped packet lengths: queue overflow, sum"
attr unit b
par SingleCell_Standalone.server.ppp[0].ppp typename "\"inet.linklayer.ppp.Ppp\""
par SingleCell_Standalone.server.ppp[0].ppp interfaceTableModule "\"SingleCell_Standalone.server.interfaceTable\""
par SingleCell_Standalone.server.ppp[0].ppp displayStringTextFormat "\"rate: %b\\nsent: %s, rcvd: %r\\nqueue: %q, drop: %d\""
par SingleCell_Standalone.server.ppp[0].ppp sendRawBytes false
par SingleCell_Standalone.server.ppp[0].ppp mtu 4470B
attr unit B
par SingleCell_Standalone.server.ppp[0].ppp stopOperationExtraTime -1s
attr unit s
par SingleCell_Standalone.server.ppp[0].ppp stopOperationTimeout 2s
attr unit s
scalar SingleCell_Standalone.server.ppp[0].ppp transmissionState:timeavg 0
attr interpolationmode sample-hold
attr recordingmode timeavg
attr source transmissionStateChanged
attr title "tx state, timeavg"
scalar SingleCell_Standalone.server.ppp[0].ppp rxPkOk:count 0
attr interpolationmode none
attr recordingmode count
attr source rxPkOk
attr title "packets received OK, count"
scalar SingleCell_Standalone.server.ppp[0].ppp rxPkOk:sum(packetBytes) 0
attr interpolationmode none
attr recordingmode sum(packetBytes)
attr source rxPkOk
attr title "packets received OK, sum(packetBytes)"
scalar SingleCell_Standalone.server.ppp[0].ppp txPk:count 0
attr interpolationmode none
attr recordingmode count
attr source packetSentToLower
attr title "packets transmitted, count"
scalar SingleCell_Standalone.server.ppp[0].ppp txPk:sum(packetBytes) 0
attr interpolationmode none
attr recordingmode sum(packetBytes)
attr source packetSentToLower
attr title "packets transmitted, sum(packetBytes)"
scalar SingleCell_Standalone.server.ppp[0].ppp rcvdPkFromHl:count 0
attr interpolationmode none
attr recordingmode count
attr source packetReceivedFromUpper
attr title "packets received from higher layer, count"
scalar SingleCell_Standalone.server.ppp[0].ppp rcvdPkFromHl:sum(packetBytes) 0
attr interpolationmode none
attr recordingmode sum(packetBytes)
attr source packetReceivedFromUpper
attr title "packets received from higher layer, sum(packetBytes)"
scalar SingleCell_Standalone.server.ppp[0].ppp passedUpPk:count 0
attr interpolationmode none
attr recordingmode count
attr source packetSentToUpper
attr title "packets passed to higher layer, count"
scalar SingleCell_Standalone.server.ppp[0].ppp passedUpPk:sum(packetBytes) 0
attr interpolationmode none
attr recordingmode sum(packetBytes)
attr source packetSentToUpper
attr title "packets passed to higher layer, sum(packetBytes)"
scalar SingleCell_Standalone.server.ppp[0].ppp packetDropIncorrectlyReceived:count 0
attr interpolationmode none
attr recordingmode count
attr source packetDropReasonIsIncorrectlyReceived(packetDropped)
attr title "packet drop: incorrectly received, count"
scalar SingleCell_Standalone.server.ppp[0].ppp packetDropIncorrectlyReceived:sum(packetBytes) 0
attr interpolationmode none
attr recordingmode sum(packetBytes)
attr source packetDropReasonIsIncorrectlyReceived(packetDropped)
attr title "packet drop: incorrectly received, sum(packetBytes)"
scalar SingleCell_Standalone.server.ppp[0].ppp packetDropInterfaceDown:count 0
attr interpolationmode none
attr recordingmode count
attr source packetDropReasonIsInterfaceDown(packetDropped)
attr title "packet drop: interface down, count"
scalar SingleCell_Standalone.server.ppp[0].ppp packetDropInterfaceDown:sum(packetBytes) 0
attr interpolationmode none
attr recordingmode sum(packetBytes)
attr source packetDropReasonIsInterfaceDown(packetDropped)
attr title "packet drop: interface down, sum(packetBytes)"
par SingleCell_Standalone.server.ppp[0] typename "\"inet.linklayer.ppp.PppInterface\""
par SingleCell_Standalone.server.ppp[0] displayStringTextFormat "\"%a (%i)\\n%m\""
par SingleCell_Standalone.server.ppp[0] recordPcap false
par SingleCell_Standalone.server.ppp[0] numPcapRecorders 0
par SingleCell_Standalone.server.ppp[0] interfaceTableModule "\"SingleCell_Standalone.server.interfaceTable\""
scalar SingleCell_Standalone.server.ppp[0] packetDropInterfaceDown:count 0
attr interpolationmode none
attr recordingmode count
attr source packetDropReasonIsInterfaceDown(packetDropped)
attr title "packet drops: interface down, count"
scalar SingleCell_Standalone.server.ppp[0] packetDropInterfaceDown:sum(packetBytes) 0
attr interpolationmode none
attr recordingmode sum(packetBytes)
attr source packetDropReasonIsInterfaceDown(packetDropped)
attr title "packet drops: interface down, sum(packetBytes)"
scalar SingleCell_Standalone.server.ppp[0] packetDropNoCarrier:count 0
attr interpolationmode none
attr recordingmode count
attr source packetDropReasonIsNoCarrier(packetDropped)
attr title "packet drops: no carrier, count"
scalar SingleCell_Standalone.server.ppp[0] packetDropNoCarrier:sum(packetBytes) 0
attr interpolationmode none
attr recordingmode sum(packetBytes)
attr source packetDropReasonIsNoCarrier(packetDropped)
attr title "packet drops: no carrier, sum(packetBytes)"
par SingleCell_Standalone.server.ipv4.transportIn.channel typename "\"ned.IdealChannel\""
par SingleCell_Standalone.server.ipv4.up.out[0].channel typename "\"ned.IdealChannel\""
par SingleCell_Standalone.server.ipv4.lp.out[2].channel typename "\"ned.IdealChannel\""
par SingleCell_Standalone.server.ipv4.ifIn.channel typename "\"ned.IdealChannel\""
par SingleCell_Standalone.server.ipv4.configurator typename "\"inet.networklayer.configurator.ipv4.Ipv4NodeConfigurator\""
par SingleCell_Standalone.server.ipv4.configurator interfaceTableModule "\"SingleCell_Standalone.server.interfaceTable\""
par SingleCell_Standalone.server.ipv4.configurator routingTableModule "\"SingleCell_Standalone.server.ipv4.routingTable\""
par SingleCell_Standalone.server.ipv4.configurator networkConfiguratorModule "\"configurator\""
par SingleCell_Standalone.server.ipv4.configurator configureRoutingTable true
par SingleCell_Standalone.server.ipv4.routingTable typename "\"inet.networklayer.ipv4.Ipv4RoutingTable\""
par SingleCell_Standalone.server.ipv4.routingTable interfaceTableModule "\"SingleCell_Standalone.server.interfaceTable\""
par SingleCell_Standalone.server.ipv4.routingTable routerId "\"auto\""
par SingleCell_Standalone.server.ipv4.routingTable netmaskRoutes "\"*\""
par SingleCell_Standalone.server.ipv4.routingTable forwarding false
par SingleCell_Standalone.server.ipv4.routingTable multicastForwarding false
par SingleCell_Standalone.server.ipv4.routingTable useAdminDist false
par SingleCell_Standalone.server.ipv4.routingTable routingFile "\"\""
par SingleCell_Standalone.server.ipv4.natTable typename "\"inet.networklayer.ipv4.Ipv4NatTable\""
par SingleCell_Standalone.server.ipv4.natTable networkProtocolModule "\"^.ip\""
par SingleCell_Standalone.server.ipv4.natTable config "<config/> at content:1"
par SingleCell_Standalone.server.ipv4.up typename "\"inet.common.MessageDispatcher\""
par SingleCell_Standalone.server.ipv4.up displayStringTextFormat "\"processed %p pk (%l)\""
par SingleCell_Standalone.server.ipv4.up forwardServiceRegistration true
par SingleCell_Standalone.server.ipv4.up forwardProtocolRegistration true
par SingleCell_Standalone.server.ipv4.igmp typename "\"inet.networklayer.ipv4.Igmpv2\""
par SingleCell_Standalone.server.ipv4.igmp interfaceTableModule "\"SingleCell_Standalone.server.interfaceTable\""
par SingleCell_Standalone.server.ipv4.igmp routingTableModule "\"SingleCell_Standalone.server.ipv4.routingTable\""
par SingleCell_Standalone.server.ipv4.igmp crcMode "\"declared\""
attr enum declared,computed
par SingleCell_Standalone.server.ipv4.igmp enabled true
par SingleCell_Standalone.server.ipv4.igmp robustnessVariable 2
par SingleCell_Standalone.server.ipv4.igmp queryInterval 125s
attr unit s
par SingleCell_Standalone.server.ipv4.igmp queryResponseInterval 10s
attr unit s
par SingleCell_Standalone.server.ipv4.igmp groupMembershipInterval 260s
attr unit s
par SingleCell_Standalone.server.ipv4.igmp otherQuerierPresentInterval 255s
attr unit s
par SingleCell_Standalone.server.ipv4.igmp startupQueryInterval 31.25s
attr unit s
par SingleCell_Standalone.server.ipv4.igmp startupQueryCount 2
par SingleCell_Standalone.server.ipv4.igmp lastMemberQueryInterval 1s
attr unit s
par SingleCell_Standalone.server.ipv4.igmp lastMemberQueryCount 2
par SingleCell_Standalone.server.ipv4.igmp unsolicitedReportInterval 10s
attr unit s
par SingleCell_Standalone.server.ipv4.icmp typename "\"inet.networklayer.ipv4.Icmp\""
par SingleCell_Standalone.server.ipv4.icmp interfaceTableModule "\"SingleCell_Standalone.server.interfaceTable\""
par SingleCell_Standalone.server.ipv4.icmp routingTableModule "\"SingleCell_Standalone.server.ipv4.routingTable\""
par SingleCell_Standalone.server.ipv4.icmp crcMode "\"declared\""
attr enum declared,computed
attr mutable ""
par SingleCell_Standalone.server.ipv4.icmp quoteLength 8B
attr mutable ""
attr unit B
par SingleCell_Standalone.server.ipv4.mp typename "\"inet.common.MessageDispatcher\""
par SingleCell_Standalone.server.ipv4.mp displayStringTextFormat "\"processed %p pk (%l)\""
par SingleCell_Standalone.server.ipv4.mp forwardServiceRegistration true
par SingleCell_Standalone.server.ipv4.mp forwardProtocolRegistration true
par SingleCell_Standalone.server.ipv4.ip typename "\"inet.networklayer.ipv4.Ipv4\""
par SingleCell_Standalone.server.ipv4.ip interfaceTableModule "\"SingleCell_Standalone.server.interfaceTable\""
par SingleCell_Standalone.server.ipv4.ip routingTableModule "\"SingleCell_Standalone.server.ipv4.routingTable\""
par SingleCell_Standalone.server.ipv4.ip arpModule "\"SingleCell_Standalone.server.ipv4.arp\""
par SingleCell_Standalone.server.ipv4.ip icmpModule "\"SingleCell_Standalone.server.ipv4.icmp\""
par SingleCell_Standalone.server.ipv4.ip crcMode "\"declared\""
attr enum declared,computed
par SingleCell_Standalone.server.ipv4.ip timeToLive 32
par SingleCell_Standalone.server.ipv4.ip multicastTimeToLive 32
par SingleCell_Standalone.server.ipv4.ip fragmentTimeout 60s
attr unit s
par SingleCell_Standalone.server.ipv4.ip limitedBroadcast false
par SingleCell_Standalone.server.ipv4.ip directBroadcastInterfaces "\"\""
scalar SingleCell_Standalone.server.ipv4.ip packetDropAddressResolutionFailed:count 0
attr interpolationmode none
attr recordingmode count
attr source packetDropReasonIsAddressResolutionFailed(packetDropped)
attr title "packet drop: address resolution failed, count"
scalar SingleCell_Standalone.server.ipv4.ip packetDropAddressResolutionFailed:sum(packetBytes) 0
attr interpolationmode none
attr recordingmode sum(packetBytes)
attr source packetDropReasonIsAddressResolutionFailed(packetDropped)
attr title "packet drop: address resolution failed, sum(packetBytes)"
scalar SingleCell_Standalone.server.ipv4.ip packetDropHopLimitReached:count 0
attr interpolationmode none
attr recordingmode count
attr source packetDropReasonIsHopLimitReached(packetDropped)
attr title "packet drop: hop limit reached, count"
scalar SingleCell_Standalone.server.ipv4.ip packetDropHopLimitReached:sum(packetBytes) 0
attr interpolationmode none
attr recordingmode sum(packetBytes)
attr source packetDropReasonIsHopLimitReached(packetDropped)
attr title "packet drop: hop limit reached, sum(packetBytes)"
scalar SingleCell_Standalone.server.ipv4.ip packetDropForwardingDisabled:count 0
attr interpolationmode none
attr recordingmode count
attr source packetDropReasonIsForwardingDisabled(packetDropped)
attr title "packet drop: forwarding disabled, count"
scalar SingleCell_Standalone.server.ipv4.ip packetDropForwardingDisabled:sum(packetBytes) 0
attr interpolationmode none
attr recordingmode sum(packetBytes)
attr source packetDropReasonIsForwardingDisabled(packetDropped)
attr title "packet drop: forwarding disabled, sum(packetBytes)"
scalar SingleCell_Standalone.server.ipv4.ip packetDropNoInterfaceFound:count 0
attr interpolationmode none
attr recordingmode count
attr source packetDropReasonIsNoInterfaceFound(packetDropped)
attr title "packet drop: no interface found, count"
scalar SingleCell_Standalone.server.ipv4.ip packetDropNoInterfaceFound:sum(packetBytes) 0
attr interpolationmode none
attr recordingmode sum(packetBytes)
attr source packetDropReasonIsNoInterfaceFound(packetDropped)
attr title "packet drop: no interface found, sum(packetBytes)"
scalar SingleCell_Standalone.server.ipv4.ip packetDropNoRouteFound:count 0
attr interpolationmode none
attr recordingmode count
attr source packetDropReasonIsNoRouteFound(packetDropped)
attr title "packet drop: no route found, count"
scalar SingleCell_Standalone.server.ipv4.ip packetDropNoRouteFound:sum(packetBytes) 0
attr interpolationmode none
attr recordingmode sum(packetBytes)
attr source packetDropReasonIsNoRouteFound(packetDropped)
attr title "packet drop: no route found, sum(packetBytes)"
scalar SingleCell_Standalone.server.ipv4.ip packetDropUndefined:count 0
attr interpolationmode none
attr recordingmode count
attr source packetDropReasonIsUndefined(packetDropped)
attr title "packet drop: undefined, count"
scalar SingleCell_Standalone.server.ipv4.ip packetDropUndefined:sum(packetBytes) 0
attr interpolationmode none
attr recordingmode sum(packetBytes)
attr source packetDropReasonIsUndefined(packetDropped)
attr title "packet drop: undefined, sum(packetBytes)"
par SingleCell_Standalone.server.ipv4.arp typename "\"inet.networklayer.arp.ipv4.Arp\""
par SingleCell_Standalone.server.ipv4.arp interfaceTableModule "\"SingleCell_Standalone.server.interfaceTable\""
par SingleCell_Standalone.server.ipv4.arp routingTableModule "\"SingleCell_Standalone.server.ipv4.routingTable\""
par SingleCell_Standalone.server.ipv4.arp retryTimeout 1s
attr unit s
par SingleCell_Standalone.server.ipv4.arp retryCount 3
par SingleCell_Standalone.server.ipv4.arp cacheTimeout 120s
attr unit s
par SingleCell_Standalone.server.ipv4.arp proxyArpInterfaces "\"\""
scalar SingleCell_Standalone.server.ipv4.arp arpResolutionFailed:count 0
attr recordingmode count
attr title "ARP failed resolutions, count"
scalar SingleCell_Standalone.server.ipv4.arp arpResolutionCompleted:count 0
attr recordingmode count
attr title "ARP completed resolutions, count"
scalar SingleCell_Standalone.server.ipv4.arp arpResolutionInitiated:count 0
attr recordingmode count
attr title "ARP initiated resolutions, count"
scalar SingleCell_Standalone.server.ipv4.arp arpReplySent:count 0
attr recordingmode count
attr source arpReplySent
attr title "ARP replies sent, count"
scalar SingleCell_Standalone.server.ipv4.arp arpReplySent:sum(packetBytes) 0
attr recordingmode sum(packetBytes)
attr source arpReplySent
attr title "ARP replies sent, sum(packetBytes)"
scalar SingleCell_Standalone.server.ipv4.arp arpRequestSent:count 0
attr recordingmode count
attr source arpRequestSent
attr title "ARP request sent, count"
scalar SingleCell_Standalone.server.ipv4.arp arpRequestSent:sum(packetBytes) 0
attr recordingmode sum(packetBytes)
attr source arpRequestSent
attr title "ARP request sent, sum(packetBytes)"
par SingleCell_Standalone.server.ipv4.lp typename "\"inet.common.MessageDispatcher\""
par SingleCell_Standalone.server.ipv4.lp displayStringTextFormat "\"processed %p pk (%l)\""
par SingleCell_Standalone.server.ipv4.lp forwardServiceRegistration true
par SingleCell_Standalone.server.ipv4.lp forwardProtocolRegistration true
par SingleCell_Standalone.server.ipv4 typename "\"inet.networklayer.ipv4.Ipv4NetworkLayer\""
par SingleCell_Standalone.server.ipv4 forwarding false
par SingleCell_Standalone.server.ipv4 multicastForwarding false
par SingleCell_Standalone.server.ipv4 interfaceTableModule "\"SingleCell_Standalone.server.interfaceTable\""
par SingleCell_Standalone.server.ipv4 displayStringTextFormat "\"%i\""
par SingleCell_Standalone.server.nl typename "\"inet.common.MessageDispatcher\""
par SingleCell_Standalone.server.nl displayStringTextFormat "\"processed %p pk (%l)\""
par SingleCell_Standalone.server.nl forwardServiceRegistration true
par SingleCell_Standalone.server.nl forwardProtocolRegistration true
par SingleCell_Standalone.server.udp typename "\"inet.transportlayer.udp.Udp\""
par SingleCell_Standalone.server.udp interfaceTableModule "\"SingleCell_Standalone.server.interfaceTable\""
par SingleCell_Standalone.server.udp icmpModule "\"^.ipv4.icmp\""
par SingleCell_Standalone.server.udp icmpv6Module "\"^.ipv6.icmpv6\""
par SingleCell_Standalone.server.udp crcMode "\"declared\""
attr enum disabled,declared,computed
par SingleCell_Standalone.server.udp defaultMulticastLoop true
scalar SingleCell_Standalone.server.udp packetReceived:count 0
attr interpolationmode none
attr recordingmode count
attr source packetReceived
attr title "packets received, count"
scalar SingleCell_Standalone.server.udp packetReceived:sum(packetBytes) 0
attr interpolationmode none
attr recordingmode sum(packetBytes)
attr source packetReceived
attr title "packets received, sum(packetBytes)"
scalar SingleCell_Standalone.server.udp packetSent:count 0
attr interpolationmode none
attr recordingmode count
attr source packetSent
attr title "packets sent, count"
scalar SingleCell_Standalone.server.udp packetSent:sum(packetBytes) 0
attr interpolationmode none
attr recordingmode sum(packetBytes)
attr source packetSent
attr title "packets sent, sum(packetBytes)"
scalar SingleCell_Standalone.server.udp passedUpPk:count 0
attr interpolationmode none
attr recordingmode count
attr source packetSentToUpper
attr title "packets passed up, count"
scalar SingleCell_Standalone.server.udp droppedPkWrongPort:count 0
attr interpolationmode none
attr recordingmode count
attr source packetDropReasonIsNoPortFound(packetDropped)
attr title "packets dropped (wrong port), count"
scalar SingleCell_Standalone.server.udp droppedPkBadChecksum:count 0
attr interpolationmode none
attr recordingmode count
attr source packetDropReasonIsIncorrectlyReceived(packetDropped)
attr title "packets dropped (checksum error), count"
par SingleCell_Standalone.server.tcp typename "\"inet.transportlayer.tcp.Tcp\""
par SingleCell_Standalone.server.tcp crcMode "\"declared\""
attr enum declared,computed
par SingleCell_Standalone.server.tcp advertisedWindow 7504
par SingleCell_Standalone.server.tcp delayedAcksEnabled false
par SingleCell_Standalone.server.tcp nagleEnabled true
par SingleCell_Standalone.server.tcp limitedTransmitEnabled false
par SingleCell_Standalone.server.tcp increasedIWEnabled false
par SingleCell_Standalone.server.tcp sackSupport false
par SingleCell_Standalone.server.tcp windowScalingSupport false
par SingleCell_Standalone.server.tcp windowScalingFactor -1
par SingleCell_Standalone.server.tcp timestampSupport false
par SingleCell_Standalone.server.tcp mss 536
par SingleCell_Standalone.server.tcp msl 120s
attr unit s
par SingleCell_Standalone.server.tcp tcpAlgorithmClass "\"TcpReno\""
attr enum TcpVegas,TcpWestwood,TcpNewReno,TcpReno,TcpTahoe,TcpNoCongestionControl
par SingleCell_Standalone.server.tcp useDataNotification false
par SingleCell_Standalone.server.tcp dupthresh 3
par SingleCell_Standalone.server.tcp initialSsthresh 4294967295
par SingleCell_Standalone.server.tcp stopOperationExtraTime 0s
attr unit s
par SingleCell_Standalone.server.tcp stopOperationTimeout 2s
attr unit s
par SingleCell_Standalone.server.tcp ecnWillingness false
par SingleCell_Standalone.server.tcp dctcpGamma 0.0625
par SingleCell_Standalone.server.tn typename "\"inet.common.MessageDispatcher\""
par SingleCell_Standalone.server.tn displayStringTextFormat "\"processed %p pk (%l)\""
par SingleCell_Standalone.server.tn forwardServiceRegistration true
par SingleCell_Standalone.server.tn forwardProtocolRegistration true
par SingleCell_Standalone.server.at typename "\"inet.common.MessageDispatcher\""
par SingleCell_Standalone.server.at displayStringTextFormat "\"processed %p pk (%l)\""
par SingleCell_Standalone.server.at forwardServiceRegistration true
par SingleCell_Standalone.server.at forwardProtocolRegistration true
par SingleCell_Standalone.server typename "\"inet.node.inet.StandardHost\""
par SingleCell_Standalone.server hasStatus false
par SingleCell_Standalone.server osgModel "\"\""
par SingleCell_Standalone.server osgModelColor "\"\""
par SingleCell_Standalone.server canvasImage "\"\""
par SingleCell_Standalone.server canvasImageColor "\"\""
par SingleCell_Standalone.server recordPcap false
par SingleCell_Standalone.server numPcapRecorders 0
par SingleCell_Standalone.server numLoInterfaces 1
par SingleCell_Standalone.server numWlanInterfaces 0
par SingleCell_Standalone.server numEthInterfaces 0
par SingleCell_Standalone.server numPppInterfaces 0
par SingleCell_Standalone.server numTunInterfaces 0
par SingleCell_Standalone.server numVirtInterfaces 0
par SingleCell_Standalone.server fcsMode "\"declared\""
attr enum declared,computed
par SingleCell_Standalone.server hasIpv4 true
par SingleCell_Standalone.server hasIpv6 false
par SingleCell_Standalone.server hasGn false
par SingleCell_Standalone.server forwarding false
par SingleCell_Standalone.server multicastForwarding false
par SingleCell_Standalone.server hasUdp true
par SingleCell_Standalone.server hasTcp true
par SingleCell_Standalone.server hasSctp false
par SingleCell_Standalone.server numApps 0
par SingleCell_Standalone.router.pppg$i[0].channel typename "\"ned.IdealChannel\""
par SingleCell_Standalone.router.ppp[0].phys$o.channel typename "\"ned.IdealChannel\""
par SingleCell_Standalone.router.pppg$i[1].channel typename "\"ned.IdealChannel\""
par SingleCell_Standalone.router.ppp[1].phys$o.channel typename "\"ned.IdealChannel\""
par SingleCell_Standalone.router.interfaceTable typename "\"inet.networklayer.common.InterfaceTable\""
par SingleCell_Standalone.router.interfaceTable displayAddresses false
par SingleCell_Standalone.router.cb typename "\"inet.common.MessageDispatcher\""
par SingleCell_Standalone.router.cb displayStringTextFormat "\"processed %p pk (%l)\""
par SingleCell_Standalone.router.cb forwardServiceRegistration true
par SingleCell_Standalone.router.cb forwardProtocolRegistration true
par SingleCell_Standalone.router.bl typename "\"inet.common.MessageDispatcher\""
par SingleCell_Standalone.router.bl displayStringTextFormat "\"processed %p pk (%l)\""
par SingleCell_Standalone.router.bl forwardServiceRegistration true
par SingleCell_Standalone.router.bl forwardProtocolRegistration true
par SingleCell_Standalone.router.li typename "\"inet.common.MessageDispatcher\""
par SingleCell_Standalone.router.li displayStringTextFormat "\"processed %p pk (%l)\""
par SingleCell_Standalone.router.li forwardServiceRegistration true
par SingleCell_Standalone.router.li forwardProtocolRegistration true
par SingleCell_Standalone.router.lo[0].upperLayerIn.channel typename "\"ned.IdealChannel\""
par SingleCell_Standalone.router.lo[0].lo.upperLayerOut.channel typename "\"ned.IdealChannel\""
par SingleCell_Standalone.router.lo[0].lo typename "\"inet.linklayer.loopback.Loopback\""
par SingleCell_Standalone.router.lo[0].lo interfaceTableModule "\"SingleCell_Standalone.router.interfaceTable\""
par SingleCell_Standalone.router.lo[0].lo mtu 4470B
attr unit B
scalar SingleCell_Standalone.router.lo[0].lo rcvdPkFromHl:count 0
attr interpolationmode none
attr recordingmode count
attr source packetReceivedFromUpper
attr title "packets received from higher layer, count"
scalar SingleCell_Standalone.router.lo[0].lo rcvdPkFromHl:sum(packetBytes) 0
attr interpolationmode none
attr recordingmode sum(packetBytes)
attr source packetReceivedFromUpper
attr title "packets received from higher layer, sum(packetBytes)"
scalar SingleCell_Standalone.router.lo[0].lo passedUpPk:count 0
attr interpolationmode none
attr recordingmode count
attr source packetSentToUpper
attr title "packets passed to higher layer, count"
scalar SingleCell_Standalone.router.lo[0].lo passedUpPk:sum(packetBytes) 0
attr interpolationmode none
attr recordingmode sum(packetBytes)
attr source packetSentToUpper
attr title "packets passed to higher layer, sum(packetBytes)"
par SingleCell_Standalone.router.lo[0] typename "\"inet.linklayer.loopback.LoopbackInterface\""
par SingleCell_Standalone.router.lo[0] displayStringTextFormat "\"%a (%i)\\n%m\""
par SingleCell_Standalone.router.lo[0] recordPcap false
par SingleCell_Standalone.router.lo[0] numPcapRecorders 0
par SingleCell_Standalone.router.lo[0] interfaceTableModule "\"SingleCell_Standalone.router.interfaceTable\""
scalar SingleCell_Standalone.router.lo[0] packetDropInterfaceDown:count 0
attr interpolationmode none
attr recordingmode count
attr source packetDropReasonIsInterfaceDown(packetDropped)
attr title "packet drops: interface down, count"
scalar SingleCell_Standalone.router.lo[0] packetDropInterfaceDown:sum(packetBytes) 0
attr interpolationmode none
attr recordingmode sum(packetBytes)
attr source packetDropReasonIsInterfaceDown(packetDropped)
attr title "packet drops: interface down, sum(packetBytes)"
scalar SingleCell_Standalone.router.lo[0] packetDropNoCarrier:count 0
attr interpolationmode none
attr recordingmode count
attr source packetDropReasonIsNoCarrier(packetDropped)
attr title "packet drops: no carrier, count"
scalar SingleCell_Standalone.router.lo[0] packetDropNoCarrier:sum(packetBytes) 0
attr interpolationmode none
attr recordingmode sum(packetBytes)
attr source packetDropReasonIsNoCarrier(packetDropped)
attr title "packet drops: no carrier, sum(packetBytes)"
par SingleCell_Standalone.router.ppp[0].phys$i.channel typename "\"ned.IdealChannel\""
par SingleCell_Standalone.router.ppp[0].ppp.phys$o.channel typename "\"ned.IdealChannel\""
par SingleCell_Standalone.router.ppp[0].ppp.upperLayerOut.channel typename "\"ned.IdealChannel\""
par SingleCell_Standalone.router.ppp[0].upperLayerIn.channel typename "\"ned.IdealChannel\""
par SingleCell_Standalone.router.ppp[0].queue typename "\"inet.queueing.queue.DropTailQueue\""
par SingleCell_Standalone.router.ppp[0].queue displayStringTextFormat "\"contains %p pk (%l) pushed %u\\npulled %o removed %r dropped %d\""
par SingleCell_Standalone.router.ppp[0].queue packetCapacity 10000
par SingleCell_Standalone.router.ppp[0].queue dataCapacity -1b
attr unit b
par SingleCell_Standalone.router.ppp[0].queue dropperClass "\"inet::queueing::PacketAtCollectionEndDropper\""
par SingleCell_Standalone.router.ppp[0].queue comparatorClass "\"\""
par SingleCell_Standalone.router.ppp[0].queue bufferModule "\"\""
scalar SingleCell_Standalone.router.ppp[0].queue queueLength:last nan
attr autoWarmupFilter false
attr interpolationmode sample-hold
attr recordingmode last
attr source "warmup(atomic(constant0(packetPushEnded) + count(packetPushStarted) - count(packetPulled) - count(packetRemoved) - count(packetDropped)))"
attr title "queue length, last"
attr unit pk
scalar SingleCell_Standalone.router.ppp[0].queue queueLength:max nan
attr autoWarmupFilter false
attr interpolationmode sample-hold
attr recordingmode max
attr source "warmup(atomic(constant0(packetPushEnded) + count(packetPushStarted) - count(packetPulled) - count(packetRemoved) - count(packetDropped)))"
attr title "queue length, max"
attr unit pk
scalar SingleCell_Standalone.router.ppp[0].queue queueLength:timeavg -nan
attr autoWarmupFilter false
attr interpolationmode sample-hold
attr recordingmode timeavg
attr source "warmup(atomic(constant0(packetPushEnded) + count(packetPushStarted) - count(packetPulled) - count(packetRemoved) - count(packetDropped)))"
attr title "queue length, timeavg"
attr unit pk
scalar SingleCell_Standalone.router.ppp[0].queue queueBitLength:last nan
attr autoWarmupFilter false
attr interpolationmode sample-hold
attr recordingmode last
attr source "warmup(atomic(constant0(packetPushEnded) + sum(packetLength(packetPushStarted)) - sum(packetLength(packetPulled)) - sum(packetLength(packetRemoved)) - sum(packetLength(packetDropped))))"
attr title "queue bit length, last"
attr unit b
scalar SingleCell_Standalone.router.ppp[0].queue queueBitLength:max nan
attr autoWarmupFilter false
attr interpolationmode sample-hold
attr recordingmode max
attr source "warmup(atomic(constant0(packetPushEnded) + sum(packetLength(packetPushStarted)) - sum(packetLength(packetPulled)) - sum(packetLength(packetRemoved)) - sum(packetLength(packetDropped))))"
attr title "queue bit length, max"
attr unit b
scalar SingleCell_Standalone.router.ppp[0].queue queueBitLength:timeavg -nan
attr autoWarmupFilter false
attr interpolationmode sample-hold
attr recordingmode timeavg
attr source "warmup(atomic(constant0(packetPushEnded) + sum(packetLength(packetPushStarted)) - sum(packetLength(packetPulled)) - sum(packetLength(packetRemoved)) - sum(packetLength(packetDropped))))"
attr title "queue bit length, timeavg"
attr unit b
statistic SingleCell_Standalone.router.ppp[0].queue queueingTime:histogram
field count 0
field mean -nan
field stddev nan
field min nan
field max nan
field sum 0
field sqrsum 0
attr interpolationmode none
attr recordingmode histogram
attr source queueingTime(packetPulled)
attr title "queueing times"
attr unit s
bin	-inf	0
bin	0	0
bin	1	0
scalar SingleCell_Standalone.router.ppp[0].queue outgoingPackets:count 0
attr recordingmode count
attr source packetPulled
attr title "outgoing packets, count"
attr unit pk
scalar SingleCell_Standalone.router.ppp[0].queue outgoingPacketLengths:sum 0
attr interpolationmode none
attr recordingmode sum
attr source packetLength(packetPulled)
attr title "outgoing packet lengths, sum"
attr unit b
statistic SingleCell_Standalone.router.ppp[0].queue outgoingPacketLengths:histogram
field count 0
field mean -nan
field stddev nan
field min nan
field max nan
field sum 0
field sqrsum 0
attr interpolationmode none
attr recordingmode histogram
attr source packetLength(packetPulled)
attr title "outgoing packet lengths"
attr unit b
bin	-inf	0
bin	0	0
bin	1	0
statistic SingleCell_Standalone.router.ppp[0].queue flowQueueingTime:histogram
field count 0
field mean -nan
field stddev nan
field min nan
field max nan
field sum 0
field sqrsum 0
attr interpolationmode none
attr recordingmode histogram
attr source queueingTime(demuxFlow(packetPulled))
attr title "flow queueing times"
attr unit s
bin	-inf	0
bin	0	0
bin	1	0
scalar SingleCell_Standalone.router.ppp[0].queue incomingPackets:count 0
attr recordingmode count
attr source packetPushStarted
attr title "incoming packets, count"
attr unit pk
scalar SingleCell_Standalone.router.ppp[0].queue incomingPacketLengths:sum 0
attr interpolationmode none
attr recordingmode sum
attr source packetLength(packetPushStarted)
attr title "incoming packet lengths, sum"
attr unit b
statistic SingleCell_Standalone.router.ppp[0].queue incomingPacketLengths:histogram
field count 0
field mean -nan
field stddev nan
field min nan
field max nan
field sum 0
field sqrsum 0
attr interpolationmode none
attr recordingmode histogram
attr source packetLength(packetPushStarted)
attr title "incoming packet lengths"
attr unit b
bin	-inf	0
bin	0	0
bin	1	0
scalar SingleCell_Standalone.router.ppp[0].queue droppedPacketsQueueOverflow:count 0
attr interpolationmode none
attr recordingmode count
attr source packetDropReasonIsQueueOverflow(packetDropped)
attr title "dropped packets: queue overflow, count"
attr unit pk
scalar SingleCell_Standalone.router.ppp[0].queue droppedPacketLengthsQueueOverflow:sum 0
attr interpolationmode none
attr recordingmode sum
attr source packetLength(packetDropReasonIsQueueOverflow(packetDropped))
attr title "dropped packet lengths: queue overflow, sum"
attr unit b
par SingleCell_Standalone.router.ppp[0].ppp typename "\"inet.linklayer.ppp.Ppp\""
par SingleCell_Standalone.router.ppp[0].ppp interfaceTableModule "\"SingleCell_Standalone.router.interfaceTable\""
par SingleCell_Standalone.router.ppp[0].ppp displayStringTextFormat "\"rate: %b\\nsent: %s, rcvd: %r\\nqueue: %q, drop: %d\""
par SingleCell_Standalone.router.ppp[0].ppp sendRawBytes false
par SingleCell_Standalone.router.ppp[0].ppp mtu 4470B
attr unit B
par SingleCell_Standalone.router.ppp[0].ppp stopOperationExtraTime -1s
attr unit s
par SingleCell_Standalone.router.ppp[0].ppp stopOperationTimeout 2s
attr unit s
scalar SingleCell_Standalone.router.ppp[0].ppp transmissionState:timeavg 0
attr interpolationmode sample-hold
attr recordingmode timeavg
attr source transmissionStateChanged
attr title "tx state, timeavg"
scalar SingleCell_Standalone.router.ppp[0].ppp rxPkOk:count 0
attr interpolationmode none
attr recordingmode count
attr source rxPkOk
attr title "packets received OK, count"
scalar SingleCell_Standalone.router.ppp[0].ppp rxPkOk:sum(packetBytes) 0
attr interpolationmode none
attr recordingmode sum(packetBytes)
attr source rxPkOk
attr title "packets received OK, sum(packetBytes)"
scalar SingleCell_Standalone.router.ppp[0].ppp txPk:count 0
attr interpolationmode none
attr recordingmode count
attr source packetSentToLower
attr title "packets transmitted, count"
scalar SingleCell_Standalone.router.ppp[0].ppp txPk:sum(packetBytes) 0
attr interpolationmode none
attr recordingmode sum(packetBytes)
attr source packetSentToLower
attr title "packets transmitted, sum(packetBytes)"
scalar SingleCell_Standalone.router.ppp[0].ppp rcvdPkFromHl:count 0
attr interpolationmode none
attr recordingmode count
attr source packetReceivedFromUpper
attr title "packets received from higher layer, count"
scalar SingleCell_Standalone.router.ppp[0].ppp rcvdPkFromHl:sum(packetBytes) 0
attr interpolationmode none
attr recordingmode sum(packetBytes)
attr source packetReceivedFromUpper
attr title "packets received from higher layer, sum(packetBytes)"
scalar SingleCell_Standalone.router.ppp[0].ppp passedUpPk:count 0
attr interpolationmode none
attr recordingmode count
attr source packetSentToUpper
attr title "packets passed to higher layer, count"
scalar SingleCell_Standalone.router.ppp[0].ppp passedUpPk:sum(packetBytes) 0
attr interpolationmode none
attr recordingmode sum(packetBytes)
attr source packetSentToUpper
attr title "packets passed to higher layer, sum(packetBytes)"
scalar SingleCell_Standalone.router.ppp[0].ppp packetDropIncorrectlyReceived:count 0
attr interpolationmode none
attr recordingmode count
attr source packetDropReasonIsIncorrectlyReceived(packetDropped)
attr title "packet drop: incorrectly received, count"
scalar SingleCell_Standalone.router.ppp[0].ppp packetDropIncorrectlyReceived:sum(packetBytes) 0
attr interpolationmode none
attr recordingmode sum(packetBytes)
attr source packetDropReasonIsIncorrectlyReceived(packetDropped)
attr title "packet drop: incorrectly received, sum(packetBytes)"
scalar SingleCell_Standalone.router.ppp[0].ppp packetDropInterfaceDown:count 0
attr interpolationmode none
attr recordingmode count
attr source packetDropReasonIsInterfaceDown(packetDropped)
attr title "packet drop: interface down, count"
scalar SingleCell_Standalone.router.ppp[0].ppp packetDropInterfaceDown:sum(packetBytes) 0
attr interpolationmode none
attr recordingmode sum(packetBytes)
attr source packetDropReasonIsInterfaceDown(packetDropped)
attr title "packet drop: interface down, sum(packetBytes)"
par SingleCell_Standalone.router.ppp[0] typename "\"inet.linklayer.ppp.PppInterface\""
par SingleCell_Standalone.router.ppp[0] displayStringTextFormat "\"%a (%i)\\n%m\""
par SingleCell_Standalone.router.ppp[0] recordPcap false
par SingleCell_Standalone.router.ppp[0] numPcapRecorders 0
par SingleCell_Standalone.router.ppp[0] interfaceTableModule "\"SingleCell_Standalone.router.interfaceTable\""
scalar SingleCell_Standalone.router.ppp[0] packetDropInterfaceDown:count 0
attr interpolationmode none
attr recordingmode count
attr source packetDropReasonIsInterfaceDown(packetDropped)
attr title "packet drops: interface down, count"
scalar SingleCell_Standalone.router.ppp[0] packetDropInterfaceDown:sum(packetBytes) 0
attr interpolationmode none
attr recordingmode sum(packetBytes)
attr source packetDropReasonIsInterfaceDown(packetDropped)
attr title "packet drops: interface down, sum(packetBytes)"
scalar SingleCell_Standalone.router.ppp[0] packetDropNoCarrier:count 0
attr interpolationmode none
attr recordingmode count
attr source packetDropReasonIsNoCarrier(packetDropped)
attr title "packet drops: no carrier, count"
scalar SingleCell_Standalone.router.ppp[0] packetDropNoCarrier:sum(packetBytes) 0
attr interpolationmode none
attr recordingmode sum(packetBytes)
attr source packetDropReasonIsNoCarrier(packetDropped)
attr title "packet drops: no carrier, sum(packetBytes)"
par SingleCell_Standalone.router.ppp[1].phys$i.channel typename "\"ned.IdealChannel\""
par SingleCell_Standalone.router.ppp[1].ppp.phys$o.channel typename "\"ned.IdealChannel\""
par SingleCell_Standalone.router.ppp[1].ppp.upperLayerOut.channel typename "\"ned.IdealChannel\""
par SingleCell_Standalone.router.ppp[1].upperLayerIn.channel typename "\"ned.IdealChannel\""
par SingleCell_Standalone.router.ppp[1].queue typename "\"inet.queueing.queue.DropTailQueue\""
par SingleCell_Standalone.router.ppp[1].queue displayStringTextFormat "\"contains %p pk (%l) pushed %u\\npulled %o removed %r dropped %d\""
par SingleCell_Standalone.router.ppp[1].queue packetCapacity 10000
par SingleCell_Standalone.router.ppp[1].queue dataCapacity -1b
attr unit b
par SingleCell_Standalone.router.ppp[1].queue dropperClass "\"inet::queueing::PacketAtCollectionEndDropper\""
par SingleCell_Standalone.router.ppp[1].queue comparatorClass "\"\""
par SingleCell_Standalone.router.ppp[1].queue bufferModule "\"\""
scalar SingleCell_Standalone.router.ppp[1].queue queueLength:last nan
attr autoWarmupFilter false
attr interpolationmode sample-hold
attr recordingmode last
attr source "warmup(atomic(constant0(packetPushEnded) + count(packetPushStarted) - count(packetPulled) - count(packetRemoved) - count(packetDropped)))"
attr title "queue length, last"
attr unit pk
scalar SingleCell_Standalone.router.ppp[1].queue queueLength:max nan
attr autoWarmupFilter false
attr interpolationmode sample-hold
attr recordingmode max
attr source "warmup(atomic(constant0(packetPushEnded) + count(packetPushStarted) - count(packetPulled) - count(packetRemoved) - count(packetDropped)))"
attr title "queue length, max"
attr unit pk
scalar SingleCell_Standalone.router.ppp[1].queue queueLength:timeavg -nan
attr autoWarmupFilter false
attr interpolationmode sample-hold
attr recordingmode timeavg
attr source "warmup(atomic(constant0(packetPushEnded) + count(packetPushStarted) - count(packetPulled) - count(packetRemoved) - count(packetDropped)))"
attr title "queue length, timeavg"
attr unit pk
scalar SingleCell_Standalone.router.ppp[1].queue queueBitLength:last nan
attr autoWarmupFilter false
attr interpolationmode sample-hold
attr recordingmode last
attr source "warmup(atomic(constant0(packetPushEnded) + sum(packetLength(packetPushStarted)) - sum(packetLength(packetPulled)) - sum(packetLength(packetRemoved)) - sum(packetLength(packetDropped))))"
attr title "queue bit length, last"
attr unit b
scalar SingleCell_Standalone.router.ppp[1].queue queueBitLength:max nan
attr autoWarmupFilter false
attr interpolationmode sample-hold
attr recordingmode max
attr source "warmup(atomic(constant0(packetPushEnded) + sum(packetLength(packetPushStarted)) - sum(packetLength(packetPulled)) - sum(packetLength(packetRemoved)) - sum(packetLength(packetDropped))))"
attr title "queue bit length, max"
attr unit b
scalar SingleCell_Standalone.router.ppp[1].queue queueBitLength:timeavg -nan
attr autoWarmupFilter false
attr interpolationmode sample-hold
attr recordingmode timeavg
attr source "warmup(atomic(constant0(packetPushEnded) + sum(packetLength(packetPushStarted)) - sum(packetLength(packetPulled)) - sum(packetLength(packetRemoved)) - sum(packetLength(packetDropped))))"
attr title "queue bit length, timeavg"
attr unit b
statistic SingleCell_Standalone.router.ppp[1].queue queueingTime:histogram
field count 0
field mean -nan
field stddev nan
field min nan
field max nan
field sum 0
field sqrsum 0
attr interpolationmode none
attr recordingmode histogram
attr source queueingTime(packetPulled)
attr title "queueing times"
attr unit s
bin	-inf	0
bin	0	0
bin	1	0
scalar SingleCell_Standalone.router.ppp[1].queue outgoingPackets:count 0
attr recordingmode count
attr source packetPulled
attr title "outgoing packets, count"
attr unit pk
scalar SingleCell_Standalone.router.ppp[1].queue outgoingPacketLengths:sum 0
attr interpolationmode none
attr recordingmode sum
attr source packetLength(packetPulled)
attr title "outgoing packet lengths, sum"
attr unit b
statistic SingleCell_Standalone.router.ppp[1].queue outgoingPacketLengths:histogram
field count 0
field mean -nan
field stddev nan
field min nan
field max nan
field sum 0
field sqrsum 0
attr interpolationmode none
attr recordingmode histogram
attr source packetLength(packetPulled)
attr title "outgoing packet lengths"
attr unit b
bin	-inf	0
bin	0	0
bin	1	0
statistic SingleCell_Standalone.router.ppp[1].queue flowQueueingTime:histogram
field count 0
field mean -nan
field stddev nan
field min nan
field max nan
field sum 0
field sqrsum 0
attr interpolationmode none
attr recordingmode histogram
attr source queueingTime(demuxFlow(packetPulled))
attr title "flow queueing times"
attr unit s
bin	-inf	0
bin	0	0
bin	1	0
scalar SingleCell_Standalone.router.ppp[1].queue incomingPackets:count 0
attr recordingmode count
attr source packetPushStarted
attr title "incoming packets, count"
attr unit pk
scalar SingleCell_Standalone.router.ppp[1].queue incomingPacketLengths:sum 0
attr interpolationmode none
attr recordingmode sum
attr source packetLength(packetPushStarted)
attr title "incoming packet lengths, sum"
attr unit b
statistic SingleCell_Standalone.router.ppp[1].queue incomingPacketLengths:histogram
field count 0
field mean -nan
field stddev nan
field min nan
field max nan
field sum 0
field sqrsum 0
attr interpolationmode none
attr recordingmode histogram
attr source packetLength(packetPushStarted)
attr title "incoming packet lengths"
attr unit b
bin	-inf	0
bin	0	0
bin	1	0
scalar SingleCell_Standalone.router.ppp[1].queue droppedPacketsQueueOverflow:count 0
attr interpolationmode none
attr recordingmode count
attr source packetDropReasonIsQueueOverflow(packetDropped)
attr title "dropped packets: queue overflow, count"
attr unit pk
scalar SingleCell_Standalone.router.ppp[1].queue droppedPacketLengthsQueueOverflow:sum 0
attr interpolationmode none
attr recordingmode sum
attr source packetLength(packetDropReasonIsQueueOverflow(packetDropped))
attr title "dropped packet lengths: queue overflow, sum"
attr unit b
par SingleCell_Standalone.router.ppp[1].ppp typename "\"inet.linklayer.ppp.Ppp\""
par SingleCell_Standalone.router.ppp[1].ppp interfaceTableModule "\"SingleCell_Standalone.router.interfaceTable\""
par SingleCell_Standalone.router.ppp[1].ppp displayStringTextFormat "\"rate: %b\\nsent: %s, rcvd: %r\\nqueue: %q, drop: %d\""
par SingleCell_Standalone.router.ppp[1].ppp sendRawBytes false
par SingleCell_Standalone.router.ppp[1].ppp mtu 4470B
attr unit B
par SingleCell_Standalone.router.ppp[1].ppp stopOperationExtraTime -1s
attr unit s
par SingleCell_Standalone.router.ppp[1].ppp stopOperationTimeout 2s
attr unit s
scalar SingleCell_Standalone.router.ppp[1].ppp transmissionState:timeavg 0
attr interpolationmode sample-hold
attr recordingmode timeavg
attr source transmissionStateChanged
attr title "tx state, timeavg"
scalar SingleCell_Standalone.router.ppp[1].ppp rxPkOk:count 0
attr interpolationmode none
attr recordingmode count
attr source rxPkOk
attr title "packets received OK, count"
scalar SingleCell_Standalone.router.ppp[1].ppp rxPkOk:sum(packetBytes) 0
attr interpolationmode none
attr recordingmode sum(packetBytes)
attr source rxPkOk
attr title "packets received OK, sum(packetBytes)"
scalar SingleCell_Standalone.router.ppp[1].ppp txPk:count 0
attr interpolationmode none
attr recordingmode count
attr source packetSentToLower
attr title "packets transmitted, count"
scalar SingleCell_Standalone.router.ppp[1].ppp txPk:sum(packetBytes) 0
attr interpolationmode none
attr recordingmode sum(packetBytes)
attr source packetSentToLower
attr title "packets transmitted, sum(packetBytes)"
scalar SingleCell_Standalone.router.ppp[1].ppp rcvdPkFromHl:count 0
attr interpolationmode none
attr recordingmode count
attr source packetReceivedFromUpper
attr title "packets received from higher layer, count"
scalar SingleCell_Standalone.router.ppp[1].ppp rcvdPkFromHl:sum(packetBytes) 0
attr interpolationmode none
attr recordingmode sum(packetBytes)
attr source packetReceivedFromUpper
attr title "packets received from higher layer, sum(packetBytes)"
scalar SingleCell_Standalone.router.ppp[1].ppp passedUpPk:count 0
attr interpolationmode none
attr recordingmode count
attr source packetSentToUpper
attr title "packets passed to higher layer, count"
scalar SingleCell_Standalone.router.ppp[1].ppp passedUpPk:sum(packetBytes) 0
attr interpolationmode none
attr recordingmode sum(packetBytes)
attr source packetSentToUpper
attr title "packets passed to higher layer, sum(packetBytes)"
scalar SingleCell_Standalone.router.ppp[1].ppp packetDropIncorrectlyReceived:count 0
attr interpolationmode none
attr recordingmode count
attr source packetDropReasonIsIncorrectlyReceived(packetDropped)
attr title "packet drop: incorrectly received, count"
scalar SingleCell_Standalone.router.ppp[1].ppp packetDropIncorrectlyReceived:sum(packetBytes) 0
attr interpolationmode none
attr recordingmode sum(packetBytes)
attr source packetDropReasonIsIncorrectlyReceived(packetDropped)
attr title "packet drop: incorrectly received, sum(packetBytes)"
scalar SingleCell_Standalone.router.ppp[1].ppp packetDropInterfaceDown:count 0
attr interpolationmode none
attr recordingmode count
attr source packetDropReasonIsInterfaceDown(packetDropped)
attr title "packet drop: interface down, count"
scalar SingleCell_Standalone.router.ppp[1].ppp packetDropInterfaceDown:sum(packetBytes) 0
attr interpolationmode none
attr recordingmode sum(packetBytes)
attr source packetDropReasonIsInterfaceDown(packetDropped)
attr title "packet drop: interface down, sum(packetBytes)"
par SingleCell_Standalone.router.ppp[1] typename "\"inet.linklayer.ppp.PppInterface\""
par SingleCell_Standalone.router.ppp[1] displayStringTextFormat "\"%a (%i)\\n%m\""
par SingleCell_Standalone.router.ppp[1] recordPcap false
par SingleCell_Standalone.router.ppp[1] numPcapRecorders 0
par SingleCell_Standalone.router.ppp[1] interfaceTableModule "\"SingleCell_Standalone.router.interfaceTable\""
scalar SingleCell_Standalone.router.ppp[1] packetDropInterfaceDown:count 0
attr interpolationmode none
attr recordingmode count
attr source packetDropReasonIsInterfaceDown(packetDropped)
attr title "packet drops: interface down, count"
scalar SingleCell_Standalone.router.ppp[1] packetDropInterfaceDown:sum(packetBytes) 0
attr interpolationmode none
attr recordingmode sum(packetBytes)
attr source packetDropReasonIsInterfaceDown(packetDropped)
attr title "packet drops: interface down, sum(packetBytes)"
scalar SingleCell_Standalone.router.ppp[1] packetDropNoCarrier:count 0
attr interpolationmode none
attr recordingmode count
attr source packetDropReasonIsNoCarrier(packetDropped)
attr title "packet drops: no carrier, count"
scalar SingleCell_Standalone.router.ppp[1] packetDropNoCarrier:sum(packetBytes) 0
attr interpolationmode none
attr recordingmode sum(packetBytes)
attr source packetDropReasonIsNoCarrier(packetDropped)
attr title "packet drops: no carrier, sum(packetBytes)"
par SingleCell_Standalone.router.ipv4.transportIn.channel typename "\"ned.IdealChannel\""
par SingleCell_Standalone.router.ipv4.up.out[0].channel typename "\"ned.IdealChannel\""
par SingleCell_Standalone.router.ipv4.lp.out[2].channel typename "\"ned.IdealChannel\""
par SingleCell_Standalone.router.ipv4.ifIn.channel typename "\"ned.IdealChannel\""
par SingleCell_Standalone.router.ipv4.configurator typename "\"inet.networklayer.configurator.ipv4.Ipv4NodeConfigurator\""
par SingleCell_Standalone.router.ipv4.configurator interfaceTableModule "\"SingleCell_Standalone.router.interfaceTable\""
par SingleCell_Standalone.router.ipv4.configurator routingTableModule "\"SingleCell_Standalone.router.ipv4.routingTable\""
par SingleCell_Standalone.router.ipv4.configurator networkConfiguratorModule "\"configurator\""
par SingleCell_Standalone.router.ipv4.configurator configureRoutingTable true
par SingleCell_Standalone.router.ipv4.routingTable typename "\"inet.networklayer.ipv4.Ipv4RoutingTable\""
par SingleCell_Standalone.router.ipv4.routingTable interfaceTableModule "\"SingleCell_Standalone.router.interfaceTable\""
par SingleCell_Standalone.router.ipv4.routingTable routerId "\"auto\""
par SingleCell_Standalone.router.ipv4.routingTable netmaskRoutes "\"*\""
par SingleCell_Standalone.router.ipv4.routingTable forwarding true
par SingleCell_Standalone.router.ipv4.routingTable multicastForwarding false
par SingleCell_Standalone.router.ipv4.routingTable useAdminDist false
par SingleCell_Standalone.router.ipv4.routingTable routingFile "\"\""
par SingleCell_Standalone.router.ipv4.natTable typename "\"inet.networklayer.ipv4.Ipv4NatTable\""
par SingleCell_Standalone.router.ipv4.natTable networkProtocolModule "\"^.ip\""
par SingleCell_Standalone.router.ipv4.natTable config "<config/> at content:1"
par SingleCell_Standalone.router.ipv4.up typename "\"inet.common.MessageDispatcher\""
par SingleCell_Standalone.router.ipv4.up displayStringTextFormat "\"processed %p pk (%l)\""
par SingleCell_Standalone.router.ipv4.up forwardServiceRegistration true
par SingleCell_Standalone.router.ipv4.up forwardProtocolRegistration true
par SingleCell_Standalone.router.ipv4.igmp typename "\"inet.networklayer.ipv4.Igmpv2\""
par SingleCell_Standalone.router.ipv4.igmp interfaceTableModule "\"SingleCell_Standalone.router.interfaceTable\""
par SingleCell_Standalone.router.ipv4.igmp routingTableModule "\"SingleCell_Standalone.router.ipv4.routingTable\""
par SingleCell_Standalone.router.ipv4.igmp crcMode "\"declared\""
attr enum declared,computed
par SingleCell_Standalone.router.ipv4.igmp enabled true
par SingleCell_Standalone.router.ipv4.igmp robustnessVariable 2
par SingleCell_Standalone.router.ipv4.igmp queryInterval 125s
attr unit s
par SingleCell_Standalone.router.ipv4.igmp queryResponseInterval 10s
attr unit s
par SingleCell_Standalone.router.ipv4.igmp groupMembershipInterval 260s
attr unit s
par SingleCell_Standalone.router.ipv4.igmp otherQuerierPresentInterval 255s
attr unit s
par SingleCell_Standalone.router.ipv4.igmp startupQueryInterval 31.25s
attr unit s
par SingleCell_Standalone.router.ipv4.igmp startupQueryCount 2
par SingleCell_Standalone.router.ipv4.igmp lastMemberQueryInterval 1s
attr unit s
par SingleCell_Standalone.router.ipv4.igmp lastMemberQueryCount 2
par SingleCell_Standalone.router.ipv4.igmp unsolicitedReportInterval 10s
attr unit s
par SingleCell_Standalone.router.ipv4.icmp typename "\"inet.networklayer.ipv4.Icmp\""
par SingleCell_Standalone.router.ipv4.icmp interfaceTableModule "\"SingleCell_Standalone.router.interfaceTable\""
par SingleCell_Standalone.router.ipv4.icmp routingTableModule "\"SingleCell_Standalone.router.ipv4.routingTable\""
par SingleCell_Standalone.router.ipv4.icmp crcMode "\"declared\""
attr enum declared,computed
attr mutable ""
par SingleCell_Standalone.router.ipv4.icmp quoteLength 8B
attr mutable ""
attr unit B
par SingleCell_Standalone.router.ipv4.mp typename "\"inet.common.MessageDispatcher\""
par SingleCell_Standalone.router.ipv4.mp displayStringTextFormat "\"processed %p pk (%l)\""
par SingleCell_Standalone.router.ipv4.mp forwardServiceRegistration true
par SingleCell_Standalone.router.ipv4.mp forwardProtocolRegistration true
par SingleCell_Standalone.router.ipv4.ip typename "\"inet.networklayer.ipv4.Ipv4\""
par SingleCell_Standalone.router.ipv4.ip interfaceTableModule "\"SingleCell_Standalone.router.interfaceTable\""
par SingleCell_Standalone.router.ipv4.ip routingTableModule "\"SingleCell_Standalone.router.ipv4.routingTable\""
par SingleCell_Standalone.router.ipv4.ip arpModule "\"SingleCell_Standalone.router.ipv4.arp\""
par SingleCell_Standalone.router.ipv4.ip icmpModule "\"SingleCell_Standalone.router.ipv4.icmp\""
par SingleCell_Standalone.router.ipv4.ip crcMode "\"declared\""
attr enum declared,computed
par SingleCell_Standalone.router.ipv4.ip timeToLive 32
par SingleCell_Standalone.router.ipv4.ip multicastTimeToLive 32
par SingleCell_Standalone.router.ipv4.ip fragmentTimeout 60s
attr unit s
par SingleCell_Standalone.router.ipv4.ip limitedBroadcast false
par SingleCell_Standalone.router.ipv4.ip directBroadcastInterfaces "\"\""
scalar SingleCell_Standalone.router.ipv4.ip packetDropAddressResolutionFailed:count 0
attr interpolationmode none
attr recordingmode count
attr source packetDropReasonIsAddressResolutionFailed(packetDropped)
attr title "packet drop: address resolution failed, count"
scalar SingleCell_Standalone.router.ipv4.ip packetDropAddressResolutionFailed:sum(packetBytes) 0
attr interpolationmode none
attr recordingmode sum(packetBytes)
attr source packetDropReasonIsAddressResolutionFailed(packetDropped)
attr title "packet drop: address resolution failed, sum(packetBytes)"
scalar SingleCell_Standalone.router.ipv4.ip packetDropHopLimitReached:count 0
attr interpolationmode none
attr recordingmode count
attr source packetDropReasonIsHopLimitReached(packetDropped)
attr title "packet drop: hop limit reached, count"
scalar SingleCell_Standalone.router.ipv4.ip packetDropHopLimitReached:sum(packetBytes) 0
attr interpolationmode none
attr recordingmode sum(packetBytes)
attr source packetDropReasonIsHopLimitReached(packetDropped)
attr title "packet drop: hop limit reached, sum(packetBytes)"
scalar SingleCell_Standalone.router.ipv4.ip packetDropForwardingDisabled:count 0
attr interpolationmode none
attr recordingmode count
attr source packetDropReasonIsForwardingDisabled(packetDropped)
attr title "packet drop: forwarding disabled, count"
scalar SingleCell_Standalone.router.ipv4.ip packetDropForwardingDisabled:sum(packetBytes) 0
attr interpolationmode none
attr recordingmode sum(packetBytes)
attr source packetDropReasonIsForwardingDisabled(packetDropped)
attr title "packet drop: forwarding disabled, sum(packetBytes)"
scalar SingleCell_Standalone.router.ipv4.ip packetDropNoInterfaceFound:count 0
attr interpolationmode none
attr recordingmode count
attr source packetDropReasonIsNoInterfaceFound(packetDropped)
attr title "packet drop: no interface found, count"
scalar SingleCell_Standalone.router.ipv4.ip packetDropNoInterfaceFound:sum(packetBytes) 0
attr interpolationmode none
attr recordingmode sum(packetBytes)
attr source packetDropReasonIsNoInterfaceFound(packetDropped)
attr title "packet drop: no interface found, sum(packetBytes)"
scalar SingleCell_Standalone.router.ipv4.ip packetDropNoRouteFound:count 0
attr interpolationmode none
attr recordingmode count
attr source packetDropReasonIsNoRouteFound(packetDropped)
attr title "packet drop: no route found, count"
scalar SingleCell_Standalone.router.ipv4.ip packetDropNoRouteFound:sum(packetBytes) 0
attr interpolationmode none
attr recordingmode sum(packetBytes)
[...]
par SingleCell_Standalone.ue[24].cellularNic PacketFlowManagerType "\"PacketFlowManagerUe\""
par SingleCell_Standalone.ue[24].cellularNic hasRNISupport false
par SingleCell_Standalone.ue[24].cellularNic LtePhyType "\"NRPhyUe\""
par SingleCell_Standalone.ue[24].cellularNic nodeType "\"UE\""
par SingleCell_Standalone.ue[24].cellularNic processingDelayIn 0s
attr unit s
par SingleCell_Standalone.ue[24].cellularNic processingDelayOut 0s
attr unit s
par SingleCell_Standalone.ue[24].cellularNic LteChannelModelType "\"LteRealisticChannelModel\""
par SingleCell_Standalone.ue[24].cellularNic d2dCapable true
par SingleCell_Standalone.ue[24].cellularNic dualConnectivityEnabled false
par SingleCell_Standalone.ue[24].cellularNic numCarriers 1
par SingleCell_Standalone.ue[24].cellularNic address "\"0A-AA-00-00-00-1B\""
attr mutable ""
par SingleCell_Standalone.ue[24].cellularNic d2dInitialMode false
par SingleCell_Standalone.ue[24].cellularNic NRMacType "\"NRMacUe\""
par SingleCell_Standalone.ue[24].cellularNic NRPhyType "\"NRPhyUe\""
par SingleCell_Standalone.ue[24].cellularNic NRChannelModelType "\"NRChannelModel_3GPP38_901\""
par SingleCell_Standalone.ue[24].cellularNic NRPacketFlowManagerType "\"NRPacketFlowManagerUe\""
par SingleCell_Standalone.ue[24].cellularNic numNRCarriers 1
scalar SingleCell_Standalone.ue[24].cellularNic packetDropInterfaceDown:count 0
attr interpolationmode none
attr recordingmode count
attr source packetDropReasonIsInterfaceDown(packetDropped)
attr title "packet drops: interface down, count"
scalar SingleCell_Standalone.ue[24].cellularNic packetDropInterfaceDown:sum(packetBytes) 0
attr interpolationmode none
attr recordingmode sum(packetBytes)
attr source packetDropReasonIsInterfaceDown(packetDropped)
attr title "packet drops: interface down, sum(packetBytes)"
scalar SingleCell_Standalone.ue[24].cellularNic packetDropNoCarrier:count 0
attr interpolationmode none
attr recordingmode count
attr source packetDropReasonIsNoCarrier(packetDropped)
attr title "packet drops: no carrier, count"
scalar SingleCell_Standalone.ue[24].cellularNic packetDropNoCarrier:sum(packetBytes) 0
attr interpolationmode none
attr recordingmode sum(packetBytes)
attr source packetDropReasonIsNoCarrier(packetDropped)
attr title "packet drops: no carrier, sum(packetBytes)"
par SingleCell_Standalone.ue[24].encap typename "\"inet.linklayer.ethernet.basic.EthernetEncapsulation\""
par SingleCell_Standalone.ue[24].encap registerProtocol true
par SingleCell_Standalone.ue[24].encap interfaceTableModule "\"SingleCell_Standalone.ue[24].interfaceTable\""
par SingleCell_Standalone.ue[24].encap fcsMode "\"declared\""
attr enum declared,computed
par SingleCell_Standalone.ue[24].encap stopOperationExtraTime -1s
attr unit s
par SingleCell_Standalone.ue[24].encap stopOperationTimeout 2s
attr unit s
scalar SingleCell_Standalone.ue[24].encap pauseSent:count 0
attr recordingmode count
attr title "pause sent, count"
scalar SingleCell_Standalone.ue[24].encap pauseSent:sum 0
attr recordingmode sum
attr title "pause sent, sum"
scalar SingleCell_Standalone.ue[24].encap decapPk:count 0
attr interpolationmode none
attr recordingmode count
attr source decapPk
attr title "packets decapsulated, count"
scalar SingleCell_Standalone.ue[24].encap decapPk:sum(packetBytes) 0
attr interpolationmode none
attr recordingmode sum(packetBytes)
attr source decapPk
attr title "packets decapsulated, sum(packetBytes)"
scalar SingleCell_Standalone.ue[24].encap encapPk:count 0
attr interpolationmode none
attr recordingmode count
attr source encapPk
attr title "packets encapsulated, count"
scalar SingleCell_Standalone.ue[24].encap encapPk:sum(packetBytes) 0
attr interpolationmode none
attr recordingmode sum(packetBytes)
attr source encapPk
attr title "packets encapsulated, sum(packetBytes)"
par SingleCell_Standalone.ue[24].ipv4.transportIn.channel typename "\"ned.IdealChannel\""
par SingleCell_Standalone.ue[24].ipv4.up.out[0].channel typename "\"ned.IdealChannel\""
par SingleCell_Standalone.ue[24].ipv4.lp.out[2].channel typename "\"ned.IdealChannel\""
par SingleCell_Standalone.ue[24].ipv4.ifIn.channel typename "\"ned.IdealChannel\""
par SingleCell_Standalone.ue[24].ipv4.configurator typename "\"inet.networklayer.configurator.ipv4.Ipv4NodeConfigurator\""
par SingleCell_Standalone.ue[24].ipv4.configurator interfaceTableModule "\"SingleCell_Standalone.ue[24].interfaceTable\""
par SingleCell_Standalone.ue[24].ipv4.configurator routingTableModule "\"SingleCell_Standalone.ue[24].ipv4.routingTable\""
par SingleCell_Standalone.ue[24].ipv4.configurator networkConfiguratorModule "\"configurator\""
par SingleCell_Standalone.ue[24].ipv4.configurator configureRoutingTable true
par SingleCell_Standalone.ue[24].ipv4.routingTable typename "\"inet.networklayer.ipv4.Ipv4RoutingTable\""
par SingleCell_Standalone.ue[24].ipv4.routingTable interfaceTableModule "\"SingleCell_Standalone.ue[24].interfaceTable\""
par SingleCell_Standalone.ue[24].ipv4.routingTable routerId "\"auto\""
par SingleCell_Standalone.ue[24].ipv4.routingTable netmaskRoutes "\"*\""
par SingleCell_Standalone.ue[24].ipv4.routingTable forwarding false
par SingleCell_Standalone.ue[24].ipv4.routingTable multicastForwarding false
par SingleCell_Standalone.ue[24].ipv4.routingTable useAdminDist false
par SingleCell_Standalone.ue[24].ipv4.routingTable routingFile "\"\""
par SingleCell_Standalone.ue[24].ipv4.natTable typename "\"inet.networklayer.ipv4.Ipv4NatTable\""
par SingleCell_Standalone.ue[24].ipv4.natTable networkProtocolModule "\"^.ip\""
par SingleCell_Standalone.ue[24].ipv4.natTable config "<config/> at content:1"
par SingleCell_Standalone.ue[24].ipv4.up typename "\"inet.common.MessageDispatcher\""
par SingleCell_Standalone.ue[24].ipv4.up displayStringTextFormat "\"processed %p pk (%l)\""
par SingleCell_Standalone.ue[24].ipv4.up forwardServiceRegistration true
par SingleCell_Standalone.ue[24].ipv4.up forwardProtocolRegistration true
par SingleCell_Standalone.ue[24].ipv4.igmp typename "\"inet.networklayer.ipv4.Igmpv2\""
par SingleCell_Standalone.ue[24].ipv4.igmp interfaceTableModule "\"SingleCell_Standalone.ue[24].interfaceTable\""
par SingleCell_Standalone.ue[24].ipv4.igmp routingTableModule "\"SingleCell_Standalone.ue[24].ipv4.routingTable\""
par SingleCell_Standalone.ue[24].ipv4.igmp crcMode "\"declared\""
attr enum declared,computed
par SingleCell_Standalone.ue[24].ipv4.igmp enabled true
par SingleCell_Standalone.ue[24].ipv4.igmp robustnessVariable 2
par SingleCell_Standalone.ue[24].ipv4.igmp queryInterval 125s
attr unit s
par SingleCell_Standalone.ue[24].ipv4.igmp queryResponseInterval 10s
attr unit s
par SingleCell_Standalone.ue[24].ipv4.igmp groupMembershipInterval 260s
attr unit s
par SingleCell_Standalone.ue[24].ipv4.igmp otherQuerierPresentInterval 255s
attr unit s
par SingleCell_Standalone.ue[24].ipv4.igmp startupQueryInterval 31.25s
attr unit s
par SingleCell_Standalone.ue[24].ipv4.igmp startupQueryCount 2
par SingleCell_Standalone.ue[24].ipv4.igmp lastMemberQueryInterval 1s
attr unit s
par SingleCell_Standalone.ue[24].ipv4.igmp lastMemberQueryCount 2
par SingleCell_Standalone.ue[24].ipv4.igmp unsolicitedReportInterval 10s
attr unit s
par SingleCell_Standalone.ue[24].ipv4.icmp typename "\"inet.networklayer.ipv4.Icmp\""
par SingleCell_Standalone.ue[24].ipv4.icmp interfaceTableModule "\"SingleCell_Standalone.ue[24].interfaceTable\""
par SingleCell_Standalone.ue[24].ipv4.icmp routingTableModule "\"SingleCell_Standalone.ue[24].ipv4.routingTable\""
par SingleCell_Standalone.ue[24].ipv4.icmp crcMode "\"declared\""
attr enum declared,computed
attr mutable ""
par SingleCell_Standalone.ue[24].ipv4.icmp quoteLength 8B
attr mutable ""
attr unit B
par SingleCell_Standalone.ue[24].ipv4.mp typename "\"inet.common.MessageDispatcher\""
par SingleCell_Standalone.ue[24].ipv4.mp displayStringTextFormat "\"processed %p pk (%l)\""
par SingleCell_Standalone.ue[24].ipv4.mp forwardServiceRegistration true
par SingleCell_Standalone.ue[24].ipv4.mp forwardProtocolRegistration true
par SingleCell_Standalone.ue[24].ipv4.ip typename "\"inet.networklayer.ipv4.Ipv4\""
par SingleCell_Standalone.ue[24].ipv4.ip interfaceTableModule "\"SingleCell_Standalone.ue[24].interfaceTable\""
par SingleCell_Standalone.ue[24].ipv4.ip routingTableModule "\"SingleCell_Standalone.ue[24].ipv4.routingTable\""
par SingleCell_Standalone.ue[24].ipv4.ip arpModule "\"SingleCell_Standalone.ue[24].ipv4.arp\""
par SingleCell_Standalone.ue[24].ipv4.ip icmpModule "\"SingleCell_Standalone.ue[24].ipv4.icmp\""
par SingleCell_Standalone.ue[24].ipv4.ip crcMode "\"declared\""
attr enum declared,computed
par SingleCell_Standalone.ue[24].ipv4.ip timeToLive 32
par SingleCell_Standalone.ue[24].ipv4.ip multicastTimeToLive 32
par SingleCell_Standalone.ue[24].ipv4.ip fragmentTimeout 60s
attr unit s
par SingleCell_Standalone.ue[24].ipv4.ip limitedBroadcast false
par SingleCell_Standalone.ue[24].ipv4.ip directBroadcastInterfaces "\"\""
scalar SingleCell_Standalone.ue[24].ipv4.ip packetDropAddressResolutionFailed:count 0
attr interpolationmode none
attr recordingmode count
attr source packetDropReasonIsAddressResolutionFailed(packetDropped)
attr title "packet drop: address resolution failed, count"
scalar SingleCell_Standalone.ue[24].ipv4.ip packetDropAddressResolutionFailed:sum(packetBytes) 0
attr interpolationmode none
attr recordingmode sum(packetBytes)
attr source packetDropReasonIsAddressResolutionFailed(packetDropped)
attr title "packet drop: address resolution failed, sum(packetBytes)"
scalar SingleCell_Standalone.ue[24].ipv4.ip packetDropHopLimitReached:count 0
attr interpolationmode none
attr recordingmode count
attr source packetDropReasonIsHopLimitReached(packetDropped)
attr title "packet drop: hop limit reached, count"
scalar SingleCell_Standalone.ue[24].ipv4.ip packetDropHopLimitReached:sum(packetBytes) 0
attr interpolationmode none
attr recordingmode sum(packetBytes)
attr source packetDropReasonIsHopLimitReached(packetDropped)
attr title "packet drop: hop limit reached, sum(packetBytes)"
scalar SingleCell_Standalone.ue[24].ipv4.ip packetDropForwardingDisabled:count 0
attr interpolationmode none
attr recordingmode count
attr source packetDropReasonIsForwardingDisabled(packetDropped)
attr title "packet drop: forwarding disabled, count"
scalar SingleCell_Standalone.ue[24].ipv4.ip packetDropForwardingDisabled:sum(packetBytes) 0
attr interpolationmode none
attr recordingmode sum(packetBytes)
attr source packetDropReasonIsForwardingDisabled(packetDropped)
attr title "packet drop: forwarding disabled, sum(packetBytes)"
scalar SingleCell_Standalone.ue[24].ipv4.ip packetDropNoInterfaceFound:count 0
attr interpolationmode none
attr recordingmode count
attr source packetDropReasonIsNoInterfaceFound(packetDropped)
attr title "packet drop: no interface found, count"
scalar SingleCell_Standalone.ue[24].ipv4.ip packetDropNoInterfaceFound:sum(packetBytes) 0
attr interpolationmode none
attr recordingmode sum(packetBytes)
attr source packetDropReasonIsNoInterfaceFound(packetDropped)
attr title "packet drop: no interface found, sum(packetBytes)"
scalar SingleCell_Standalone.ue[24].ipv4.ip packetDropNoRouteFound:count 0
attr interpolationmode none
attr recordingmode count
attr source packetDropReasonIsNoRouteFound(packetDropped)
attr title "packet drop: no route found, count"
scalar SingleCell_Standalone.ue[24].ipv4.ip packetDropNoRouteFound:sum(packetBytes) 0
attr interpolationmode none
attr recordingmode sum(packetBytes)
attr source packetDropReasonIsNoRouteFound(packetDropped)
attr title "packet drop: no route found, sum(packetBytes)"
scalar SingleCell_Standalone.ue[24].ipv4.ip packetDropUndefined:count 0
attr interpolationmode none
attr recordingmode count
attr source packetDropReasonIsUndefined(packetDropped)
attr title "packet drop: undefined, count"
scalar SingleCell_Standalone.ue[24].ipv4.ip packetDropUndefined:sum(packetBytes) 0
attr interpolationmode none
attr recordingmode sum(packetBytes)
attr source packetDropReasonIsUndefined(packetDropped)
attr title "packet drop: undefined, sum(packetBytes)"
par SingleCell_Standalone.ue[24].ipv4.arp typename "\"inet.networklayer.arp.ipv4.Arp\""
par SingleCell_Standalone.ue[24].ipv4.arp interfaceTableModule "\"SingleCell_Standalone.ue[24].interfaceTable\""
par SingleCell_Standalone.ue[24].ipv4.arp routingTableModule "\"SingleCell_Standalone.ue[24].ipv4.routingTable\""
par SingleCell_Standalone.ue[24].ipv4.arp retryTimeout 1s
attr unit s
par SingleCell_Standalone.ue[24].ipv4.arp retryCount 3
par SingleCell_Standalone.ue[24].ipv4.arp cacheTimeout 120s
attr unit s
par SingleCell_Standalone.ue[24].ipv4.arp proxyArpInterfaces "\"*\""
scalar SingleCell_Standalone.ue[24].ipv4.arp arpResolutionFailed:count 0
attr recordingmode count
attr title "ARP failed resolutions, count"
scalar SingleCell_Standalone.ue[24].ipv4.arp arpResolutionCompleted:count 0
attr recordingmode count
attr title "ARP completed resolutions, count"
scalar SingleCell_Standalone.ue[24].ipv4.arp arpResolutionInitiated:count 0
attr recordingmode count
attr title "ARP initiated resolutions, count"
scalar SingleCell_Standalone.ue[24].ipv4.arp arpReplySent:count 0
attr recordingmode count
attr source arpReplySent
attr title "ARP replies sent, count"
scalar SingleCell_Standalone.ue[24].ipv4.arp arpReplySent:sum(packetBytes) 0
attr recordingmode sum(packetBytes)
attr source arpReplySent
attr title "ARP replies sent, sum(packetBytes)"
scalar SingleCell_Standalone.ue[24].ipv4.arp arpRequestSent:count 0
attr recordingmode count
attr source arpRequestSent
attr title "ARP request sent, count"
scalar SingleCell_Standalone.ue[24].ipv4.arp arpRequestSent:sum(packetBytes) 0
attr recordingmode sum(packetBytes)
attr source arpRequestSent
attr title "ARP request sent, sum(packetBytes)"
par SingleCell_Standalone.ue[24].ipv4.lp typename "\"inet.common.MessageDispatcher\""
par SingleCell_Standalone.ue[24].ipv4.lp displayStringTextFormat "\"processed %p pk (%l)\""
par SingleCell_Standalone.ue[24].ipv4.lp forwardServiceRegistration true
par SingleCell_Standalone.ue[24].ipv4.lp forwardProtocolRegistration true
par SingleCell_Standalone.ue[24].ipv4 typename "\"inet.networklayer.ipv4.Ipv4NetworkLayer\""
par SingleCell_Standalone.ue[24].ipv4 forwarding false
par SingleCell_Standalone.ue[24].ipv4 multicastForwarding false
par SingleCell_Standalone.ue[24].ipv4 interfaceTableModule "\"SingleCell_Standalone.ue[24].interfaceTable\""
par SingleCell_Standalone.ue[24].ipv4 displayStringTextFormat "\"%i\""
par SingleCell_Standalone.ue[24].udp typename "\"inet.transportlayer.udp.Udp\""
par SingleCell_Standalone.ue[24].udp interfaceTableModule "\"SingleCell_Standalone.ue[24].interfaceTable\""
par SingleCell_Standalone.ue[24].udp icmpModule "\"^.ipv4.icmp\""
par SingleCell_Standalone.ue[24].udp icmpv6Module "\"^.ipv6.icmpv6\""
par SingleCell_Standalone.ue[24].udp crcMode "\"declared\""
attr enum disabled,declared,computed
par SingleCell_Standalone.ue[24].udp defaultMulticastLoop true
scalar SingleCell_Standalone.ue[24].udp packetReceived:count 0
attr interpolationmode none
attr recordingmode count
attr source packetReceived
attr title "packets received, count"
scalar SingleCell_Standalone.ue[24].udp packetReceived:sum(packetBytes) 0
attr interpolationmode none
attr recordingmode sum(packetBytes)
attr source packetReceived
attr title "packets received, sum(packetBytes)"
scalar SingleCell_Standalone.ue[24].udp packetSent:count 0
attr interpolationmode none
attr recordingmode count
attr source packetSent
attr title "packets sent, count"
scalar SingleCell_Standalone.ue[24].udp packetSent:sum(packetBytes) 0
attr interpolationmode none
attr recordingmode sum(packetBytes)
attr source packetSent
attr title "packets sent, sum(packetBytes)"
scalar SingleCell_Standalone.ue[24].udp passedUpPk:count 0
attr interpolationmode none
attr recordingmode count
attr source packetSentToUpper
attr title "packets passed up, count"
scalar SingleCell_Standalone.ue[24].udp droppedPkWrongPort:count 0
attr interpolationmode none
attr recordingmode count
attr source packetDropReasonIsNoPortFound(packetDropped)
attr title "packets dropped (wrong port), count"
scalar SingleCell_Standalone.ue[24].udp droppedPkBadChecksum:count 0
attr interpolationmode none
attr recordingmode count
attr source packetDropReasonIsIncorrectlyReceived(packetDropped)
attr title "packets dropped (checksum error), count"
par SingleCell_Standalone.ue[24].tcp typename "\"inet.transportlayer.tcp.Tcp\""
par SingleCell_Standalone.ue[24].tcp crcMode "\"declared\""
attr enum declared,computed
par SingleCell_Standalone.ue[24].tcp advertisedWindow 7504
par SingleCell_Standalone.ue[24].tcp delayedAcksEnabled false
par SingleCell_Standalone.ue[24].tcp nagleEnabled true
par SingleCell_Standalone.ue[24].tcp limitedTransmitEnabled false
par SingleCell_Standalone.ue[24].tcp increasedIWEnabled false
par SingleCell_Standalone.ue[24].tcp sackSupport false
par SingleCell_Standalone.ue[24].tcp windowScalingSupport false
par SingleCell_Standalone.ue[24].tcp windowScalingFactor -1
par SingleCell_Standalone.ue[24].tcp timestampSupport false
par SingleCell_Standalone.ue[24].tcp mss 536
par SingleCell_Standalone.ue[24].tcp msl 120s
attr unit s
par SingleCell_Standalone.ue[24].tcp tcpAlgorithmClass "\"TcpReno\""
attr enum TcpVegas,TcpWestwood,TcpNewReno,TcpReno,TcpTahoe,TcpNoCongestionControl
par SingleCell_Standalone.ue[24].tcp useDataNotification false
par SingleCell_Standalone.ue[24].tcp dupthresh 3
par SingleCell_Standalone.ue[24].tcp initialSsthresh 4294967295
par SingleCell_Standalone.ue[24].tcp stopOperationExtraTime 0s
attr unit s
par SingleCell_Standalone.ue[24].tcp stopOperationTimeout 2s
attr unit s
par SingleCell_Standalone.ue[24].tcp ecnWillingness false
par SingleCell_Standalone.ue[24].tcp dctcpGamma 0.0625
par SingleCell_Standalone.ue[24].at typename "\"inet.common.MessageDispatcher\""
par SingleCell_Standalone.ue[24].at displayStringTextFormat "\"processed %p pk (%l)\""
par SingleCell_Standalone.ue[24].at forwardServiceRegistration true
par SingleCell_Standalone.ue[24].at forwardProtocolRegistration true
par SingleCell_Standalone.ue[24].tn typename "\"inet.common.MessageDispatcher\""
par SingleCell_Standalone.ue[24].tn displayStringTextFormat "\"processed %p pk (%l)\""
par SingleCell_Standalone.ue[24].tn forwardServiceRegistration true
par SingleCell_Standalone.ue[24].tn forwardProtocolRegistration true
par SingleCell_Standalone.ue[24].nl typename "\"inet.common.MessageDispatcher\""
par SingleCell_Standalone.ue[24].nl displayStringTextFormat "\"processed %p pk (%l)\""
par SingleCell_Standalone.ue[24].nl forwardServiceRegistration true
par SingleCell_Standalone.ue[24].nl forwardProtocolRegistration true
par SingleCell_Standalone.ue[24] typename "\"simu5g.nodes.NR.NRUe\""
par SingleCell_Standalone.ue[24] numApps 0
par SingleCell_Standalone.ue[24] hasUdp true
par SingleCell_Standalone.ue[24] hasTcp true
par SingleCell_Standalone.ue[24] hasSctp false
par SingleCell_Standalone.ue[24] nodeType "\"UE\""
par SingleCell_Standalone.ue[24] masterId 2
attr mutable ""
par SingleCell_Standalone.ue[24] macNodeId 1049
attr mutable ""
par SingleCell_Standalone.ue[24] macCellId 2
attr mutable ""
par SingleCell_Standalone.ue[24] nicType "\"NRNicUe\""
par SingleCell_Standalone.ue[24] hasIpv4 true
par SingleCell_Standalone.ue[24] hasIpv6 false
par SingleCell_Standalone.ue[24] numEthInterfaces 0
par SingleCell_Standalone.ue[24] extHostAddress "\"\""
par SingleCell_Standalone.ue[24] numLoInterfaces 1
par SingleCell_Standalone.ue[24] numPcapRecorders 0
par SingleCell_Standalone.ue[24] hasRNISupport false
par SingleCell_Standalone.ue[24] nrMasterId 2
attr mutable ""
par SingleCell_Standalone.ue[24] nrMacNodeId 2073
attr mutable ""
par SingleCell_Standalone.ue[24] nrMacCellId 2
attr mutable ""
par SingleCell_Standalone typename "\"simu5g.simulations.NR.networks.SingleCell_Standalone\""
par SingleCell_Standalone numUe 25
par SingleCell_Standalone numBgCells 0

