version 3
run Standalone-0-20231214-12:42:55-11312
attr configname Standalone
attr datetime 20231214-12:42:55
attr datetimef 20231214-124255
attr experiment Standalone
attr inifile omnetpp.ini
attr iterationvars ""
attr iterationvarsd ""
attr iterationvarsf ""
attr measurement ""
attr network simu5g.simulations.NR.networks.SingleCell_StandaloneR
attr processid 11312
attr repetition 0
attr replication #0
attr resultdir results
attr runnumber 0
attr seedset 0
config image-path ../../../images:../../../../inet4.4/images:../../../../veins_inet/images:../../../../veins-veins-5.2/images
config network simu5g.simulations.NR.networks.SingleCell_StandaloneR
config sim-time-limit 5s
config *.gnb.mobility.initialX 2000m
config *.gnb.mobility.initialY 1500m
config *.numUe 10
config *.ue[0].macCellId 1
config *.ue[0].masterId 1
config *.ue[0].nrMacCellId 1
config *.ue[0].nrMasterId 1
config *.ue[1].macCellId 1
config *.ue[1].masterId 1
config *.ue[1].nrMacCellId 1
config *.ue[1].nrMasterId 1
config *.ue[2].macCellId 1
config *.ue[2].masterId 1
config *.ue[2].nrMacCellId 1
config *.ue[2].nrMasterId 1
config *.ue[3].macCellId 1
config *.ue[3].masterId 1
config *.ue[3].nrMacCellId 1
config *.ue[3].nrMasterId 1
config *.ue[4].macCellId 1
config *.ue[4].masterId 1
config *.ue[4].nrMacCellId 1
config *.ue[4].nrMasterId 1
config *.ue[5].macCellId 1
config *.ue[5].masterId 1
config *.ue[5].nrMacCellId 1
config *.ue[5].nrMasterId 1
config *.ue[6].macCellId 1
config *.ue[6].masterId 1
config *.ue[6].nrMacCellId 1
config *.ue[6].nrMasterId 1
config *.ue[7].macCellId 1
config *.ue[7].masterId 1
config *.ue[7].nrMacCellId 1
config *.ue[7].nrMasterId 1
config *.ue[8].macCellId 1
config *.ue[8].masterId 1
config *.ue[8].nrMacCellId 1
config *.ue[8].nrMasterId 1
config *.ue[9].macCellId 1
config *.ue[9].masterId 1
config *.ue[9].nrMacCellId 1
config *.ue[9].nrMasterId 1
config *.ue[0].mobility.initialX 1026m
config *.ue[0].mobility.initialY 363m
config *.ue[1].mobility.initialX 2522m
config *.ue[1].mobility.initialY 2923m
config *.ue[2].mobility.initialX 4467m
config *.ue[2].mobility.initialY 1041m
config *.ue[3].mobility.initialX 4591m
config *.ue[3].mobility.initialY 281m
config *.ue[4].mobility.initialX 1909m
config *.ue[4].mobility.initialY 1611m
config *.ue[5].mobility.initialX 2442m
config *.ue[5].mobility.initialY 4369m
config *.ue[6].mobility.initialX 2723m
config *.ue[6].mobility.initialY 4771m
config *.ue[7].mobility.initialX 207m
config *.ue[7].mobility.initialY 4081m
config *.ue[8].mobility.initialX 964m
config *.ue[8].mobility.initialY 2609m
config *.ue[9].mobility.initialX 2448m
config *.ue[9].mobility.initialY 1444m
config image-path ../../../images
config output-scalar-file-append false
config sim-time-limit 20s
config **.routingRecorder.enabled false
config output-scalar-file results/Standalone/0.sca
config output-vector-file results/Standalone/0.vec
config seed-set 0
config **.vector-recording false
config **.mobility.constraintAreaMaxX 5000m
config **.mobility.constraintAreaMaxY 5000m
config **.mobility.constraintAreaMinX 0m
config **.mobility.constraintAreaMinY 0m
config **.mobility.constraintAreaMinZ 0m
config **.mobility.constraintAreaMaxZ 0m
config **.mobility.initFromDisplayString false
config **.numBands 50
config **.ueTxPower 30
config **.eNodeBTxPower 50
config **.targetBler 0.01
config **.blerShift 5
config *.configurator.config "xmldoc(\"./demo.xml\")"

par SingleCell_StandaloneR.server.pppg$o[0].channel typename "\"inet.node.ethernet.Eth10G\""
par SingleCell_StandaloneR.server.pppg$o[0].channel disabled false
attr mutable ""
par SingleCell_StandaloneR.server.pppg$o[0].channel delay 5e-08s
attr mutable ""
attr unit s
par SingleCell_StandaloneR.server.pppg$o[0].channel datarate 1e+10bps
attr mutable ""
attr unit bps
par SingleCell_StandaloneR.server.pppg$o[0].channel ber 0
attr mutable ""
par SingleCell_StandaloneR.server.pppg$o[0].channel per 0
attr mutable ""
par SingleCell_StandaloneR.server.pppg$o[0].channel length 10m
attr unit m
par SingleCell_StandaloneR.router.pppg$o[0].channel typename "\"inet.node.ethernet.Eth10G\""
par SingleCell_StandaloneR.router.pppg$o[0].channel disabled false
attr mutable ""
par SingleCell_StandaloneR.router.pppg$o[0].channel delay 5e-08s
attr mutable ""
attr unit s
par SingleCell_StandaloneR.router.pppg$o[0].channel datarate 1e+10bps
attr mutable ""
attr unit bps
par SingleCell_StandaloneR.router.pppg$o[0].channel ber 0
attr mutable ""
par SingleCell_StandaloneR.router.pppg$o[0].channel per 0
attr mutable ""
par SingleCell_StandaloneR.router.pppg$o[0].channel length 10m
attr unit m
par SingleCell_StandaloneR.router.pppg$o[1].channel typename "\"inet.node.ethernet.Eth10G\""
par SingleCell_StandaloneR.router.pppg$o[1].channel disabled false
attr mutable ""
par SingleCell_StandaloneR.router.pppg$o[1].channel delay 5e-08s
attr mutable ""
attr unit s
par SingleCell_StandaloneR.router.pppg$o[1].channel datarate 1e+10bps
attr mutable ""
attr unit bps
par SingleCell_StandaloneR.router.pppg$o[1].channel ber 0
attr mutable ""
par SingleCell_StandaloneR.router.pppg$o[1].channel per 0
attr mutable ""
par SingleCell_StandaloneR.router.pppg$o[1].channel length 10m
attr unit m
par SingleCell_StandaloneR.upf.filterGate$o.channel typename "\"inet.node.ethernet.Eth10G\""
par SingleCell_StandaloneR.upf.filterGate$o.channel disabled false
attr mutable ""
par SingleCell_StandaloneR.upf.filterGate$o.channel delay 5e-08s
attr mutable ""
attr unit s
par SingleCell_StandaloneR.upf.filterGate$o.channel datarate 1e+10bps
attr mutable ""
attr unit bps
par SingleCell_StandaloneR.upf.filterGate$o.channel ber 0
attr mutable ""
par SingleCell_StandaloneR.upf.filterGate$o.channel per 0
attr mutable ""
par SingleCell_StandaloneR.upf.filterGate$o.channel length 10m
attr unit m
par SingleCell_StandaloneR.upf.pppg$o[0].channel typename "\"inet.node.ethernet.Eth10G\""
par SingleCell_StandaloneR.upf.pppg$o[0].channel disabled false
attr mutable ""
par SingleCell_StandaloneR.upf.pppg$o[0].channel delay 5e-08s
attr mutable ""
attr unit s
par SingleCell_StandaloneR.upf.pppg$o[0].channel datarate 1e+10bps
attr mutable ""
attr unit bps
par SingleCell_StandaloneR.upf.pppg$o[0].channel ber 0
attr mutable ""
par SingleCell_StandaloneR.upf.pppg$o[0].channel per 0
attr mutable ""
par SingleCell_StandaloneR.upf.pppg$o[0].channel length 10m
attr unit m
par SingleCell_StandaloneR.iUpf.pppg$o[0].channel typename "\"inet.node.ethernet.Eth10G\""
par SingleCell_StandaloneR.iUpf.pppg$o[0].channel disabled false
attr mutable ""
par SingleCell_StandaloneR.iUpf.pppg$o[0].channel delay 5e-08s
attr mutable ""
attr unit s
par SingleCell_StandaloneR.iUpf.pppg$o[0].channel datarate 1e+10bps
attr mutable ""
attr unit bps
par SingleCell_StandaloneR.iUpf.pppg$o[0].channel ber 0
attr mutable ""
par SingleCell_StandaloneR.iUpf.pppg$o[0].channel per 0
attr mutable ""
par SingleCell_StandaloneR.iUpf.pppg$o[0].channel length 10m
attr unit m
par SingleCell_StandaloneR.iUpf.pppg$o[1].channel typename "\"inet.node.ethernet.Eth10G\""
par SingleCell_StandaloneR.iUpf.pppg$o[1].channel disabled false
attr mutable ""
par SingleCell_StandaloneR.iUpf.pppg$o[1].channel delay 5e-08s
attr mutable ""
attr unit s
par SingleCell_StandaloneR.iUpf.pppg$o[1].channel datarate 1e+10bps
attr mutable ""
attr unit bps
par SingleCell_StandaloneR.iUpf.pppg$o[1].channel ber 0
attr mutable ""
par SingleCell_StandaloneR.iUpf.pppg$o[1].channel per 0
attr mutable ""
par SingleCell_StandaloneR.iUpf.pppg$o[1].channel length 10m
attr unit m
par SingleCell_StandaloneR.gnb.ppp$o.channel typename "\"inet.node.ethernet.Eth10G\""
par SingleCell_StandaloneR.gnb.ppp$o.channel disabled false
attr mutable ""
par SingleCell_StandaloneR.gnb.ppp$o.channel delay 5e-08s
attr mutable ""
attr unit s
par SingleCell_StandaloneR.gnb.ppp$o.channel datarate 1e+10bps
attr mutable ""
attr unit bps
par SingleCell_StandaloneR.gnb.ppp$o.channel ber 0
attr mutable ""
par SingleCell_StandaloneR.gnb.ppp$o.channel per 0
attr mutable ""
par SingleCell_StandaloneR.gnb.ppp$o.channel length 10m
attr unit m
par SingleCell_StandaloneR.channelControl typename "\"simu5g.world.radio.LteChannelControl\""
par SingleCell_StandaloneR.channelControl coreDebug false
par SingleCell_StandaloneR.channelControl pMax 20mW
attr unit mW
par SingleCell_StandaloneR.channelControl sat -110dBm
attr unit dBm
par SingleCell_StandaloneR.channelControl alpha 2
par SingleCell_StandaloneR.channelControl carrierFrequency 2.4e+09Hz
attr unit Hz
par SingleCell_StandaloneR.channelControl numChannels 1
par SingleCell_StandaloneR.channelControl propagationModel "\"FreeSpaceModel\""
attr enum FreeSpaceModel,TwoRayGroundModel,RiceModel,RayleighModel,NakagamiModel,LogNormalShadowingModel
par SingleCell_StandaloneR.routingRecorder typename "\"inet.networklayer.ipv4.RoutingTableRecorder\""
par SingleCell_StandaloneR.routingRecorder enabled false
par SingleCell_StandaloneR.configurator typename "\"inet.networklayer.configurator.ipv4.Ipv4NetworkConfigurator\""
par SingleCell_StandaloneR.configurator minLinkWeight 0.001
par SingleCell_StandaloneR.configurator configureIsolatedNetworksSeparatly false
par SingleCell_StandaloneR.configurator config "<config>...</config> at /home/simu5g/simu5g-workspace/simu5G/simulations/NR/standaloneR//./demo.xml:1"
par SingleCell_StandaloneR.configurator assignAddresses true
par SingleCell_StandaloneR.configurator assignUniqueAddresses true
par SingleCell_StandaloneR.configurator assignDisjunctSubnetAddresses true
par SingleCell_StandaloneR.configurator addStaticRoutes true
par SingleCell_StandaloneR.configurator addDefaultRoutes true
par SingleCell_StandaloneR.configurator addSubnetRoutes true
par SingleCell_StandaloneR.configurator addDirectRoutes true
par SingleCell_StandaloneR.configurator optimizeRoutes true
par SingleCell_StandaloneR.configurator dumpTopology false
par SingleCell_StandaloneR.configurator dumpLinks false
par SingleCell_StandaloneR.configurator dumpAddresses false
par SingleCell_StandaloneR.configurator dumpRoutes false
par SingleCell_StandaloneR.configurator dumpConfig "\"\""
par SingleCell_StandaloneR.binder typename "\"simu5g.common.binder.Binder\""
par SingleCell_StandaloneR.binder blerShift 5
par SingleCell_StandaloneR.binder maxDataRatePerRb 1.16Mbps
attr unit Mbps
par SingleCell_StandaloneR.binder printTrafficGeneratorConfig false
par SingleCell_StandaloneR.carrierAggregation.componentCarrier[0] typename "\"simu5g.common.carrierAggregation.ComponentCarrier\""
par SingleCell_StandaloneR.carrierAggregation.componentCarrier[0] carrierFrequency 2GHz
attr unit GHz
par SingleCell_StandaloneR.carrierAggregation.componentCarrier[0] numBands 50
par SingleCell_StandaloneR.carrierAggregation.componentCarrier[0] numerologyIndex 0
par SingleCell_StandaloneR.carrierAggregation.componentCarrier[0] useTdd false
par SingleCell_StandaloneR.carrierAggregation.componentCarrier[0] tddNumSymbolsDl 7
par SingleCell_StandaloneR.carrierAggregation.componentCarrier[0] tddNumSymbolsUl 7
par SingleCell_StandaloneR.carrierAggregation typename "\"simu5g.common.carrierAggregation.CarrierAggregation\""
par SingleCell_StandaloneR.carrierAggregation numComponentCarriers 1
par SingleCell_StandaloneR.server.pppg$i[0].channel typename "\"ned.IdealChannel\""
par SingleCell_StandaloneR.server.ppp[0].phys$o.channel typename "\"ned.IdealChannel\""
par SingleCell_StandaloneR.server.interfaceTable typename "\"inet.networklayer.common.InterfaceTable\""
par SingleCell_StandaloneR.server.interfaceTable displayAddresses false
par SingleCell_StandaloneR.server.cb typename "\"inet.common.MessageDispatcher\""
par SingleCell_StandaloneR.server.cb displayStringTextFormat "\"processed %p pk (%l)\""
par SingleCell_StandaloneR.server.cb forwardServiceRegistration true
par SingleCell_StandaloneR.server.cb forwardProtocolRegistration true
par SingleCell_StandaloneR.server.bl typename "\"inet.common.MessageDispatcher\""
par SingleCell_StandaloneR.server.bl displayStringTextFormat "\"processed %p pk (%l)\""
par SingleCell_StandaloneR.server.bl forwardServiceRegistration true
par SingleCell_StandaloneR.server.bl forwardProtocolRegistration true
par SingleCell_StandaloneR.server.li typename "\"inet.common.MessageDispatcher\""
par SingleCell_StandaloneR.server.li displayStringTextFormat "\"processed %p pk (%l)\""
par SingleCell_StandaloneR.server.li forwardServiceRegistration true
par SingleCell_StandaloneR.server.li forwardProtocolRegistration true
par SingleCell_StandaloneR.server.lo[0].upperLayerIn.channel typename "\"ned.IdealChannel\""
par SingleCell_StandaloneR.server.lo[0].lo.upperLayerOut.channel typename "\"ned.IdealChannel\""
par SingleCell_StandaloneR.server.lo[0].lo typename "\"inet.linklayer.loopback.Loopback\""
par SingleCell_StandaloneR.server.lo[0].lo interfaceTableModule "\"SingleCell_StandaloneR.server.interfaceTable\""
par SingleCell_StandaloneR.server.lo[0].lo mtu 4470B
attr unit B
scalar SingleCell_StandaloneR.server.lo[0].lo rcvdPkFromHl:count 0
attr interpolationmode none
attr recordingmode count
attr source packetReceivedFromUpper
attr title "packets received from higher layer, count"
scalar SingleCell_StandaloneR.server.lo[0].lo rcvdPkFromHl:sum(packetBytes) 0
attr interpolationmode none
attr recordingmode sum(packetBytes)
attr source packetReceivedFromUpper
attr title "packets received from higher layer, sum(packetBytes)"
scalar SingleCell_StandaloneR.server.lo[0].lo passedUpPk:count 0
attr interpolationmode none
attr recordingmode count
attr source packetSentToUpper
attr title "packets passed to higher layer, count"
scalar SingleCell_StandaloneR.server.lo[0].lo passedUpPk:sum(packetBytes) 0
attr interpolationmode none
attr recordingmode sum(packetBytes)
attr source packetSentToUpper
attr title "packets passed to higher layer, sum(packetBytes)"
par SingleCell_StandaloneR.server.lo[0] typename "\"inet.linklayer.loopback.LoopbackInterface\""
par SingleCell_StandaloneR.server.lo[0] displayStringTextFormat "\"%a (%i)\\n%m\""
par SingleCell_StandaloneR.server.lo[0] recordPcap false
par SingleCell_StandaloneR.server.lo[0] numPcapRecorders 0
par SingleCell_StandaloneR.server.lo[0] interfaceTableModule "\"SingleCell_StandaloneR.server.interfaceTable\""
scalar SingleCell_StandaloneR.server.lo[0] packetDropInterfaceDown:count 0
attr interpolationmode none
attr recordingmode count
attr source packetDropReasonIsInterfaceDown(packetDropped)
attr title "packet drops: interface down, count"
scalar SingleCell_StandaloneR.server.lo[0] packetDropInterfaceDown:sum(packetBytes) 0
attr interpolationmode none
attr recordingmode sum(packetBytes)
attr source packetDropReasonIsInterfaceDown(packetDropped)
attr title "packet drops: interface down, sum(packetBytes)"
scalar SingleCell_StandaloneR.server.lo[0] packetDropNoCarrier:count 0
attr interpolationmode none
attr recordingmode count
attr source packetDropReasonIsNoCarrier(packetDropped)
attr title "packet drops: no carrier, count"
scalar SingleCell_StandaloneR.server.lo[0] packetDropNoCarrier:sum(packetBytes) 0
attr interpolationmode none
attr recordingmode sum(packetBytes)
attr source packetDropReasonIsNoCarrier(packetDropped)
attr title "packet drops: no carrier, sum(packetBytes)"
par SingleCell_StandaloneR.server.ppp[0].phys$i.channel typename "\"ned.IdealChannel\""
par SingleCell_StandaloneR.server.ppp[0].ppp.phys$o.channel typename "\"ned.IdealChannel\""
par SingleCell_StandaloneR.server.ppp[0].ppp.upperLayerOut.channel typename "\"ned.IdealChannel\""
par SingleCell_StandaloneR.server.ppp[0].upperLayerIn.channel typename "\"ned.IdealChannel\""
par SingleCell_StandaloneR.server.ppp[0].queue typename "\"inet.queueing.queue.DropTailQueue\""
par SingleCell_StandaloneR.server.ppp[0].queue displayStringTextFormat "\"contains %p pk (%l) pushed %u\\npulled %o removed %r dropped %d\""
par SingleCell_StandaloneR.server.ppp[0].queue packetCapacity 10000
par SingleCell_StandaloneR.server.ppp[0].queue dataCapacity -1b
attr unit b
par SingleCell_StandaloneR.server.ppp[0].queue dropperClass "\"inet::queueing::PacketAtCollectionEndDropper\""
par SingleCell_StandaloneR.server.ppp[0].queue comparatorClass "\"\""
par SingleCell_StandaloneR.server.ppp[0].queue bufferModule "\"\""
scalar SingleCell_StandaloneR.server.ppp[0].queue queueLength:last nan
attr autoWarmupFilter false
attr interpolationmode sample-hold
attr recordingmode last
attr source "warmup(atomic(constant0(packetPushEnded) + count(packetPushStarted) - count(packetPulled) - count(packetRemoved) - count(packetDropped)))"
attr title "queue length, last"
attr unit pk
scalar SingleCell_StandaloneR.server.ppp[0].queue queueLength:max nan
attr autoWarmupFilter false
attr interpolationmode sample-hold
attr recordingmode max
attr source "warmup(atomic(constant0(packetPushEnded) + count(packetPushStarted) - count(packetPulled) - count(packetRemoved) - count(packetDropped)))"
attr title "queue length, max"
attr unit pk
scalar SingleCell_StandaloneR.server.ppp[0].queue queueLength:timeavg -nan
attr autoWarmupFilter false
attr interpolationmode sample-hold
attr recordingmode timeavg
attr source "warmup(atomic(constant0(packetPushEnded) + count(packetPushStarted) - count(packetPulled) - count(packetRemoved) - count(packetDropped)))"
attr title "queue length, timeavg"
attr unit pk
scalar SingleCell_StandaloneR.server.ppp[0].queue queueBitLength:last nan
attr autoWarmupFilter false
attr interpolationmode sample-hold
attr recordingmode last
attr source "warmup(atomic(constant0(packetPushEnded) + sum(packetLength(packetPushStarted)) - sum(packetLength(packetPulled)) - sum(packetLength(packetRemoved)) - sum(packetLength(packetDropped))))"
attr title "queue bit length, last"
attr unit b
scalar SingleCell_StandaloneR.server.ppp[0].queue queueBitLength:max nan
attr autoWarmupFilter false
attr interpolationmode sample-hold
attr recordingmode max
attr source "warmup(atomic(constant0(packetPushEnded) + sum(packetLength(packetPushStarted)) - sum(packetLength(packetPulled)) - sum(packetLength(packetRemoved)) - sum(packetLength(packetDropped))))"
attr title "queue bit length, max"
attr unit b
scalar SingleCell_StandaloneR.server.ppp[0].queue queueBitLength:timeavg -nan
attr autoWarmupFilter false
attr interpolationmode sample-hold
attr recordingmode timeavg
attr source "warmup(atomic(constant0(packetPushEnded) + sum(packetLength(packetPushStarted)) - sum(packetLength(packetPulled)) - sum(packetLength(packetRemoved)) - sum(packetLength(packetDropped))))"
attr title "queue bit length, timeavg"
attr unit b
statistic SingleCell_StandaloneR.server.ppp[0].queue queueingTime:histogram
field count 0
field mean -nan
field stddev nan
field min nan
field max nan
field sum 0
field sqrsum 0
attr interpolationmode none
attr recordingmode histogram
attr source queueingTime(packetPulled)
attr title "queueing times"
attr unit s
bin	-inf	0
bin	0	0
bin	1	0
scalar SingleCell_StandaloneR.server.ppp[0].queue outgoingPackets:count 0
attr recordingmode count
attr source packetPulled
attr title "outgoing packets, count"
attr unit pk
scalar SingleCell_StandaloneR.server.ppp[0].queue outgoingPacketLengths:sum 0
attr interpolationmode none
attr recordingmode sum
attr source packetLength(packetPulled)
attr title "outgoing packet lengths, sum"
attr unit b
statistic SingleCell_StandaloneR.server.ppp[0].queue outgoingPacketLengths:histogram
field count 0
field mean -nan
field stddev nan
field min nan
field max nan
field sum 0
field sqrsum 0
attr interpolationmode none
attr recordingmode histogram
attr source packetLength(packetPulled)
attr title "outgoing packet lengths"
attr unit b
bin	-inf	0
bin	0	0
bin	1	0
statistic SingleCell_StandaloneR.server.ppp[0].queue flowQueueingTime:histogram
field count 0
field mean -nan
field stddev nan
field min nan
field max nan
field sum 0
field sqrsum 0
attr interpolationmode none
attr recordingmode histogram
attr source queueingTime(demuxFlow(packetPulled))
attr title "flow queueing times"
attr unit s
bin	-inf	0
bin	0	0
bin	1	0
scalar SingleCell_StandaloneR.server.ppp[0].queue incomingPackets:count 0
attr recordingmode count
attr source packetPushStarted
attr title "incoming packets, count"
attr unit pk
scalar SingleCell_StandaloneR.server.ppp[0].queue incomingPacketLengths:sum 0
attr interpolationmode none
attr recordingmode sum
attr source packetLength(packetPushStarted)
attr title "incoming packet lengths, sum"
attr unit b
statistic SingleCell_StandaloneR.server.ppp[0].queue incomingPacketLengths:histogram
field count 0
field mean -nan
field stddev nan
field min nan
field max nan
field sum 0
field sqrsum 0
attr interpolationmode none
attr recordingmode histogram
attr source packetLength(packetPushStarted)
attr title "incoming packet lengths"
attr unit b
bin	-inf	0
bin	0	0
bin	1	0
scalar SingleCell_StandaloneR.server.ppp[0].queue droppedPacketsQueueOverflow:count 0
attr interpolationmode none
attr recordingmode count
attr source packetDropReasonIsQueueOverflow(packetDropped)
attr title "dropped packets: queue overflow, count"
attr unit pk
scalar SingleCell_StandaloneR.server.ppp[0].queue droppedPacketLengthsQueueOverflow:sum 0
attr interpolationmode none
attr recordingmode sum
attr source packetLength(packetDropReasonIsQueueOverflow(packetDropped))
attr title "dropped packet lengths: queue overflow, sum"
attr unit b
par SingleCell_StandaloneR.server.ppp[0].ppp typename "\"inet.linklayer.ppp.Ppp\""
par SingleCell_StandaloneR.server.ppp[0].ppp interfaceTableModule "\"SingleCell_StandaloneR.server.interfaceTable\""
par SingleCell_StandaloneR.server.ppp[0].ppp displayStringTextFormat "\"rate: %b\\nsent: %s, rcvd: %r\\nqueue: %q, drop: %d\""
par SingleCell_StandaloneR.server.ppp[0].ppp sendRawBytes false
par SingleCell_StandaloneR.server.ppp[0].ppp mtu 4470B
attr unit B
par SingleCell_StandaloneR.server.ppp[0].ppp stopOperationExtraTime -1s
attr unit s
par SingleCell_StandaloneR.server.ppp[0].ppp stopOperationTimeout 2s
attr unit s
scalar SingleCell_StandaloneR.server.ppp[0].ppp transmissionState:timeavg 0
attr interpolationmode sample-hold
attr recordingmode timeavg
attr source transmissionStateChanged
attr title "tx state, timeavg"
scalar SingleCell_StandaloneR.server.ppp[0].ppp rxPkOk:count 0
attr interpolationmode none
attr recordingmode count
attr source rxPkOk
attr title "packets received OK, count"
scalar SingleCell_StandaloneR.server.ppp[0].ppp rxPkOk:sum(packetBytes) 0
attr interpolationmode none
attr recordingmode sum(packetBytes)
attr source rxPkOk
attr title "packets received OK, sum(packetBytes)"
scalar SingleCell_StandaloneR.server.ppp[0].ppp txPk:count 0
attr interpolationmode none
attr recordingmode count
attr source packetSentToLower
attr title "packets transmitted, count"
scalar SingleCell_StandaloneR.server.ppp[0].ppp txPk:sum(packetBytes) 0
attr interpolationmode none
attr recordingmode sum(packetBytes)
attr source packetSentToLower
attr title "packets transmitted, sum(packetBytes)"
scalar SingleCell_StandaloneR.server.ppp[0].ppp rcvdPkFromHl:count 0
attr interpolationmode none
attr recordingmode count
attr source packetReceivedFromUpper
attr title "packets received from higher layer, count"
scalar SingleCell_StandaloneR.server.ppp[0].ppp rcvdPkFromHl:sum(packetBytes) 0
attr interpolationmode none
attr recordingmode sum(packetBytes)
attr source packetReceivedFromUpper
attr title "packets received from higher layer, sum(packetBytes)"
scalar SingleCell_StandaloneR.server.ppp[0].ppp passedUpPk:count 0
attr interpolationmode none
attr recordingmode count
attr source packetSentToUpper
attr title "packets passed to higher layer, count"
scalar SingleCell_StandaloneR.server.ppp[0].ppp passedUpPk:sum(packetBytes) 0
attr interpolationmode none
attr recordingmode sum(packetBytes)
attr source packetSentToUpper
attr title "packets passed to higher layer, sum(packetBytes)"
scalar SingleCell_StandaloneR.server.ppp[0].ppp packetDropIncorrectlyReceived:count 0
attr interpolationmode none
attr recordingmode count
attr source packetDropReasonIsIncorrectlyReceived(packetDropped)
attr title "packet drop: incorrectly received, count"
scalar SingleCell_StandaloneR.server.ppp[0].ppp packetDropIncorrectlyReceived:sum(packetBytes) 0
attr interpolationmode none
attr recordingmode sum(packetBytes)
attr source packetDropReasonIsIncorrectlyReceived(packetDropped)
attr title "packet drop: incorrectly received, sum(packetBytes)"
scalar SingleCell_StandaloneR.server.ppp[0].ppp packetDropInterfaceDown:count 0
attr interpolationmode none
attr recordingmode count
attr source packetDropReasonIsInterfaceDown(packetDropped)
attr title "packet drop: interface down, count"
scalar SingleCell_StandaloneR.server.ppp[0].ppp packetDropInterfaceDown:sum(packetBytes) 0
attr interpolationmode none
attr recordingmode sum(packetBytes)
attr source packetDropReasonIsInterfaceDown(packetDropped)
attr title "packet drop: interface down, sum(packetBytes)"
par SingleCell_StandaloneR.server.ppp[0] typename "\"inet.linklayer.ppp.PppInterface\""
par SingleCell_StandaloneR.server.ppp[0] displayStringTextFormat "\"%a (%i)\\n%m\""
par SingleCell_StandaloneR.server.ppp[0] recordPcap false
par SingleCell_StandaloneR.server.ppp[0] numPcapRecorders 0
par SingleCell_StandaloneR.server.ppp[0] interfaceTableModule "\"SingleCell_StandaloneR.server.interfaceTable\""
scalar SingleCell_StandaloneR.server.ppp[0] packetDropInterfaceDown:count 0
attr interpolationmode none
attr recordingmode count
attr source packetDropReasonIsInterfaceDown(packetDropped)
attr title "packet drops: interface down, count"
scalar SingleCell_StandaloneR.server.ppp[0] packetDropInterfaceDown:sum(packetBytes) 0
attr interpolationmode none
attr recordingmode sum(packetBytes)
attr source packetDropReasonIsInterfaceDown(packetDropped)
attr title "packet drops: interface down, sum(packetBytes)"
scalar SingleCell_StandaloneR.server.ppp[0] packetDropNoCarrier:count 0
attr interpolationmode none
attr recordingmode count
attr source packetDropReasonIsNoCarrier(packetDropped)
attr title "packet drops: no carrier, count"
scalar SingleCell_StandaloneR.server.ppp[0] packetDropNoCarrier:sum(packetBytes) 0
attr interpolationmode none
attr recordingmode sum(packetBytes)
attr source packetDropReasonIsNoCarrier(packetDropped)
attr title "packet drops: no carrier, sum(packetBytes)"
par SingleCell_StandaloneR.server.ipv4.transportIn.channel typename "\"ned.IdealChannel\""
par SingleCell_StandaloneR.server.ipv4.up.out[0].channel typename "\"ned.IdealChannel\""
par SingleCell_StandaloneR.server.ipv4.lp.out[2].channel typename "\"ned.IdealChannel\""
par SingleCell_StandaloneR.server.ipv4.ifIn.channel typename "\"ned.IdealChannel\""
par SingleCell_StandaloneR.server.ipv4.configurator typename "\"inet.networklayer.configurator.ipv4.Ipv4NodeConfigurator\""
par SingleCell_StandaloneR.server.ipv4.configurator interfaceTableModule "\"SingleCell_StandaloneR.server.interfaceTable\""
par SingleCell_StandaloneR.server.ipv4.configurator routingTableModule "\"SingleCell_StandaloneR.server.ipv4.routingTable\""
par SingleCell_StandaloneR.server.ipv4.configurator networkConfiguratorModule "\"configurator\""
par SingleCell_StandaloneR.server.ipv4.configurator configureRoutingTable true
par SingleCell_StandaloneR.server.ipv4.routingTable typename "\"inet.networklayer.ipv4.Ipv4RoutingTable\""
par SingleCell_StandaloneR.server.ipv4.routingTable interfaceTableModule "\"SingleCell_StandaloneR.server.interfaceTable\""
par SingleCell_StandaloneR.server.ipv4.routingTable routerId "\"auto\""
par SingleCell_StandaloneR.server.ipv4.routingTable netmaskRoutes "\"*\""
par SingleCell_StandaloneR.server.ipv4.routingTable forwarding false
par SingleCell_StandaloneR.server.ipv4.routingTable multicastForwarding false
par SingleCell_StandaloneR.server.ipv4.routingTable useAdminDist false
par SingleCell_StandaloneR.server.ipv4.routingTable routingFile "\"\""
par SingleCell_StandaloneR.server.ipv4.natTable typename "\"inet.networklayer.ipv4.Ipv4NatTable\""
par SingleCell_StandaloneR.server.ipv4.natTable networkProtocolModule "\"^.ip\""
par SingleCell_StandaloneR.server.ipv4.natTable config "<config/> at content:1"
par SingleCell_StandaloneR.server.ipv4.up typename "\"inet.common.MessageDispatcher\""
par SingleCell_StandaloneR.server.ipv4.up displayStringTextFormat "\"processed %p pk (%l)\""
par SingleCell_StandaloneR.server.ipv4.up forwardServiceRegistration true
par SingleCell_StandaloneR.server.ipv4.up forwardProtocolRegistration true
par SingleCell_StandaloneR.server.ipv4.igmp typename "\"inet.networklayer.ipv4.Igmpv2\""
par SingleCell_StandaloneR.server.ipv4.igmp interfaceTableModule "\"SingleCell_StandaloneR.server.interfaceTable\""
par SingleCell_StandaloneR.server.ipv4.igmp routingTableModule "\"SingleCell_StandaloneR.server.ipv4.routingTable\""
par SingleCell_StandaloneR.server.ipv4.igmp crcMode "\"declared\""
attr enum declared,computed
par SingleCell_StandaloneR.server.ipv4.igmp enabled true
par SingleCell_StandaloneR.server.ipv4.igmp robustnessVariable 2
par SingleCell_StandaloneR.server.ipv4.igmp queryInterval 125s
attr unit s
par SingleCell_StandaloneR.server.ipv4.igmp queryResponseInterval 10s
attr unit s
par SingleCell_StandaloneR.server.ipv4.igmp groupMembershipInterval 260s
attr unit s
par SingleCell_StandaloneR.server.ipv4.igmp otherQuerierPresentInterval 255s
attr unit s
par SingleCell_StandaloneR.server.ipv4.igmp startupQueryInterval 31.25s
attr unit s
par SingleCell_StandaloneR.server.ipv4.igmp startupQueryCount 2
par SingleCell_StandaloneR.server.ipv4.igmp lastMemberQueryInterval 1s
attr unit s
par SingleCell_StandaloneR.server.ipv4.igmp lastMemberQueryCount 2
par SingleCell_StandaloneR.server.ipv4.igmp unsolicitedReportInterval 10s
attr unit s
par SingleCell_StandaloneR.server.ipv4.icmp typename "\"inet.networklayer.ipv4.Icmp\""
par SingleCell_StandaloneR.server.ipv4.icmp interfaceTableModule "\"SingleCell_StandaloneR.server.interfaceTable\""
par SingleCell_StandaloneR.server.ipv4.icmp routingTableModule "\"SingleCell_StandaloneR.server.ipv4.routingTable\""
par SingleCell_StandaloneR.server.ipv4.icmp crcMode "\"declared\""
attr enum declared,computed
attr mutable ""
par SingleCell_StandaloneR.server.ipv4.icmp quoteLength 8B
attr mutable ""
attr unit B
par SingleCell_StandaloneR.server.ipv4.mp typename "\"inet.common.MessageDispatcher\""
par SingleCell_StandaloneR.server.ipv4.mp displayStringTextFormat "\"processed %p pk (%l)\""
par SingleCell_StandaloneR.server.ipv4.mp forwardServiceRegistration true
par SingleCell_StandaloneR.server.ipv4.mp forwardProtocolRegistration true
par SingleCell_StandaloneR.server.ipv4.ip typename "\"inet.networklayer.ipv4.Ipv4\""
par SingleCell_StandaloneR.server.ipv4.ip interfaceTableModule "\"SingleCell_StandaloneR.server.interfaceTable\""
par SingleCell_StandaloneR.server.ipv4.ip routingTableModule "\"SingleCell_StandaloneR.server.ipv4.routingTable\""
par SingleCell_StandaloneR.server.ipv4.ip arpModule "\"SingleCell_StandaloneR.server.ipv4.arp\""
par SingleCell_StandaloneR.server.ipv4.ip icmpModule "\"SingleCell_StandaloneR.server.ipv4.icmp\""
par SingleCell_StandaloneR.server.ipv4.ip crcMode "\"declared\""
attr enum declared,computed
par SingleCell_StandaloneR.server.ipv4.ip timeToLive 32
par SingleCell_StandaloneR.server.ipv4.ip multicastTimeToLive 32
par SingleCell_StandaloneR.server.ipv4.ip fragmentTimeout 60s
attr unit s
par SingleCell_StandaloneR.server.ipv4.ip limitedBroadcast false
par SingleCell_StandaloneR.server.ipv4.ip directBroadcastInterfaces "\"\""
scalar SingleCell_StandaloneR.server.ipv4.ip packetDropAddressResolutionFailed:count 0
attr interpolationmode none
attr recordingmode count
attr source packetDropReasonIsAddressResolutionFailed(packetDropped)
attr title "packet drop: address resolution failed, count"
scalar SingleCell_StandaloneR.server.ipv4.ip packetDropAddressResolutionFailed:sum(packetBytes) 0
attr interpolationmode none
attr recordingmode sum(packetBytes)
attr source packetDropReasonIsAddressResolutionFailed(packetDropped)
attr title "packet drop: address resolution failed, sum(packetBytes)"
scalar SingleCell_StandaloneR.server.ipv4.ip packetDropHopLimitReached:count 0
attr interpolationmode none
attr recordingmode count
attr source packetDropReasonIsHopLimitReached(packetDropped)
attr title "packet drop: hop limit reached, count"
scalar SingleCell_StandaloneR.server.ipv4.ip packetDropHopLimitReached:sum(packetBytes) 0
attr interpolationmode none
attr recordingmode sum(packetBytes)
attr source packetDropReasonIsHopLimitReached(packetDropped)
attr title "packet drop: hop limit reached, sum(packetBytes)"
scalar SingleCell_StandaloneR.server.ipv4.ip packetDropForwardingDisabled:count 0
attr interpolationmode none
attr recordingmode count
attr source packetDropReasonIsForwardingDisabled(packetDropped)
attr title "packet drop: forwarding disabled, count"
scalar SingleCell_StandaloneR.server.ipv4.ip packetDropForwardingDisabled:sum(packetBytes) 0
attr interpolationmode none
attr recordingmode sum(packetBytes)
attr source packetDropReasonIsForwardingDisabled(packetDropped)
attr title "packet drop: forwarding disabled, sum(packetBytes)"
scalar SingleCell_StandaloneR.server.ipv4.ip packetDropNoInterfaceFound:count 0
attr interpolationmode none
attr recordingmode count
attr source packetDropReasonIsNoInterfaceFound(packetDropped)
attr title "packet drop: no interface found, count"
scalar SingleCell_StandaloneR.server.ipv4.ip packetDropNoInterfaceFound:sum(packetBytes) 0
attr interpolationmode none
attr recordingmode sum(packetBytes)
attr source packetDropReasonIsNoInterfaceFound(packetDropped)
attr title "packet drop: no interface found, sum(packetBytes)"
scalar SingleCell_StandaloneR.server.ipv4.ip packetDropNoRouteFound:count 0
attr interpolationmode none
attr recordingmode count
attr source packetDropReasonIsNoRouteFound(packetDropped)
attr title "packet drop: no route found, count"
scalar SingleCell_StandaloneR.server.ipv4.ip packetDropNoRouteFound:sum(packetBytes) 0
attr interpolationmode none
attr recordingmode sum(packetBytes)
attr source packetDropReasonIsNoRouteFound(packetDropped)
attr title "packet drop: no route found, sum(packetBytes)"
scalar SingleCell_StandaloneR.server.ipv4.ip packetDropUndefined:count 0
attr interpolationmode none
attr recordingmode count
attr source packetDropReasonIsUndefined(packetDropped)
attr title "packet drop: undefined, count"
scalar SingleCell_StandaloneR.server.ipv4.ip packetDropUndefined:sum(packetBytes) 0
attr interpolationmode none
attr recordingmode sum(packetBytes)
attr source packetDropReasonIsUndefined(packetDropped)
attr title "packet drop: undefined, sum(packetBytes)"
par SingleCell_StandaloneR.server.ipv4.arp typename "\"inet.networklayer.arp.ipv4.Arp\""
par SingleCell_StandaloneR.server.ipv4.arp interfaceTableModule "\"SingleCell_StandaloneR.server.interfaceTable\""
par SingleCell_StandaloneR.server.ipv4.arp routingTableModule "\"SingleCell_StandaloneR.server.ipv4.routingTable\""
par SingleCell_StandaloneR.server.ipv4.arp retryTimeout 1s
attr unit s
par SingleCell_StandaloneR.server.ipv4.arp retryCount 3
par SingleCell_StandaloneR.server.ipv4.arp cacheTimeout 120s
attr unit s
par SingleCell_StandaloneR.server.ipv4.arp proxyArpInterfaces "\"\""
scalar SingleCell_StandaloneR.server.ipv4.arp arpResolutionFailed:count 0
attr recordingmode count
attr title "ARP failed resolutions, count"
scalar SingleCell_StandaloneR.server.ipv4.arp arpResolutionCompleted:count 0
attr recordingmode count
attr title "ARP completed resolutions, count"
scalar SingleCell_StandaloneR.server.ipv4.arp arpResolutionInitiated:count 0
attr recordingmode count
attr title "ARP initiated resolutions, count"
scalar SingleCell_StandaloneR.server.ipv4.arp arpReplySent:count 0
attr recordingmode count
attr source arpReplySent
attr title "ARP replies sent, count"
scalar SingleCell_StandaloneR.server.ipv4.arp arpReplySent:sum(packetBytes) 0
attr recordingmode sum(packetBytes)
attr source arpReplySent
attr title "ARP replies sent, sum(packetBytes)"
scalar SingleCell_StandaloneR.server.ipv4.arp arpRequestSent:count 0
attr recordingmode count
attr source arpRequestSent
attr title "ARP request sent, count"
scalar SingleCell_StandaloneR.server.ipv4.arp arpRequestSent:sum(packetBytes) 0
attr recordingmode sum(packetBytes)
attr source arpRequestSent
attr title "ARP request sent, sum(packetBytes)"
par SingleCell_StandaloneR.server.ipv4.lp typename "\"inet.common.MessageDispatcher\""
par SingleCell_StandaloneR.server.ipv4.lp displayStringTextFormat "\"processed %p pk (%l)\""
par SingleCell_StandaloneR.server.ipv4.lp forwardServiceRegistration true
par SingleCell_StandaloneR.server.ipv4.lp forwardProtocolRegistration true
par SingleCell_StandaloneR.server.ipv4 typename "\"inet.networklayer.ipv4.Ipv4NetworkLayer\""
par SingleCell_StandaloneR.server.ipv4 forwarding false
par SingleCell_StandaloneR.server.ipv4 multicastForwarding false
par SingleCell_StandaloneR.server.ipv4 interfaceTableModule "\"SingleCell_StandaloneR.server.interfaceTable\""
par SingleCell_StandaloneR.server.ipv4 displayStringTextFormat "\"%i\""
par SingleCell_StandaloneR.server.nl typename "\"inet.common.MessageDispatcher\""
par SingleCell_StandaloneR.server.nl displayStringTextFormat "\"processed %p pk (%l)\""
par SingleCell_StandaloneR.server.nl forwardServiceRegistration true
par SingleCell_StandaloneR.server.nl forwardProtocolRegistration true
par SingleCell_StandaloneR.server.udp typename "\"inet.transportlayer.udp.Udp\""
par SingleCell_StandaloneR.server.udp interfaceTableModule "\"SingleCell_StandaloneR.server.interfaceTable\""
par SingleCell_StandaloneR.server.udp icmpModule "\"^.ipv4.icmp\""
par SingleCell_StandaloneR.server.udp icmpv6Module "\"^.ipv6.icmpv6\""
par SingleCell_StandaloneR.server.udp crcMode "\"declared\""
attr enum disabled,declared,computed
par SingleCell_StandaloneR.server.udp defaultMulticastLoop true
scalar SingleCell_StandaloneR.server.udp packetReceived:count 0
attr interpolationmode none
attr recordingmode count
attr source packetReceived
attr title "packets received, count"
scalar SingleCell_StandaloneR.server.udp packetReceived:sum(packetBytes) 0
attr interpolationmode none
attr recordingmode sum(packetBytes)
attr source packetReceived
attr title "packets received, sum(packetBytes)"
scalar SingleCell_StandaloneR.server.udp packetSent:count 0
attr interpolationmode none
attr recordingmode count
attr source packetSent
attr title "packets sent, count"
scalar SingleCell_StandaloneR.server.udp packetSent:sum(packetBytes) 0
attr interpolationmode none
attr recordingmode sum(packetBytes)
attr source packetSent
attr title "packets sent, sum(packetBytes)"
scalar SingleCell_StandaloneR.server.udp passedUpPk:count 0
attr interpolationmode none
attr recordingmode count
attr source packetSentToUpper
attr title "packets passed up, count"
scalar SingleCell_StandaloneR.server.udp droppedPkWrongPort:count 0
attr interpolationmode none
attr recordingmode count
attr source packetDropReasonIsNoPortFound(packetDropped)
attr title "packets dropped (wrong port), count"
scalar SingleCell_StandaloneR.server.udp droppedPkBadChecksum:count 0
attr interpolationmode none
attr recordingmode count
attr source packetDropReasonIsIncorrectlyReceived(packetDropped)
attr title "packets dropped (checksum error), count"
par SingleCell_StandaloneR.server.tcp typename "\"inet.transportlayer.tcp.Tcp\""
par SingleCell_StandaloneR.server.tcp crcMode "\"declared\""
attr enum declared,computed
par SingleCell_StandaloneR.server.tcp advertisedWindow 7504
par SingleCell_StandaloneR.server.tcp delayedAcksEnabled false
par SingleCell_StandaloneR.server.tcp nagleEnabled true
par SingleCell_StandaloneR.server.tcp limitedTransmitEnabled false
par SingleCell_StandaloneR.server.tcp increasedIWEnabled false
par SingleCell_StandaloneR.server.tcp sackSupport false
par SingleCell_StandaloneR.server.tcp windowScalingSupport false
par SingleCell_StandaloneR.server.tcp windowScalingFactor -1
par SingleCell_StandaloneR.server.tcp timestampSupport false
par SingleCell_StandaloneR.server.tcp mss 536
par SingleCell_StandaloneR.server.tcp msl 120s
attr unit s
par SingleCell_StandaloneR.server.tcp tcpAlgorithmClass "\"TcpReno\""
attr enum TcpVegas,TcpWestwood,TcpNewReno,TcpReno,TcpTahoe,TcpNoCongestionControl
par SingleCell_StandaloneR.server.tcp useDataNotification false
par SingleCell_StandaloneR.server.tcp dupthresh 3
par SingleCell_StandaloneR.server.tcp initialSsthresh 4294967295
par SingleCell_StandaloneR.server.tcp stopOperationExtraTime 0s
attr unit s
par SingleCell_StandaloneR.server.tcp stopOperationTimeout 2s
attr unit s
par SingleCell_StandaloneR.server.tcp ecnWillingness false
par SingleCell_StandaloneR.server.tcp dctcpGamma 0.0625
par SingleCell_StandaloneR.server.tn typename "\"inet.common.MessageDispatcher\""
par SingleCell_StandaloneR.server.tn displayStringTextFormat "\"processed %p pk (%l)\""
par SingleCell_StandaloneR.server.tn forwardServiceRegistration true
par SingleCell_StandaloneR.server.tn forwardProtocolRegistration true
par SingleCell_StandaloneR.server.at typename "\"inet.common.MessageDispatcher\""
par SingleCell_StandaloneR.server.at displayStringTextFormat "\"processed %p pk (%l)\""
par SingleCell_StandaloneR.server.at forwardServiceRegistration true
par SingleCell_StandaloneR.server.at forwardProtocolRegistration true
par SingleCell_StandaloneR.server typename "\"inet.node.inet.StandardHost\""
par SingleCell_StandaloneR.server hasStatus false
par SingleCell_StandaloneR.server osgModel "\"\""
par SingleCell_StandaloneR.server osgModelColor "\"\""
par SingleCell_StandaloneR.server canvasImage "\"\""
par SingleCell_StandaloneR.server canvasImageColor "\"\""
par SingleCell_StandaloneR.server recordPcap false
par SingleCell_StandaloneR.server numPcapRecorders 0
par SingleCell_StandaloneR.server numLoInterfaces 1
par SingleCell_StandaloneR.server numWlanInterfaces 0
par SingleCell_StandaloneR.server numEthInterfaces 0
par SingleCell_StandaloneR.server numPppInterfaces 0
par SingleCell_StandaloneR.server numTunInterfaces 0
par SingleCell_StandaloneR.server numVirtInterfaces 0
par SingleCell_StandaloneR.server fcsMode "\"declared\""
attr enum declared,computed
par SingleCell_StandaloneR.server hasIpv4 true
par SingleCell_StandaloneR.server hasIpv6 false
par SingleCell_StandaloneR.server hasGn false
par SingleCell_StandaloneR.server forwarding false
par SingleCell_StandaloneR.server multicastForwarding false
par SingleCell_StandaloneR.server hasUdp true
par SingleCell_StandaloneR.server hasTcp true
par SingleCell_StandaloneR.server hasSctp false
par SingleCell_StandaloneR.server numApps 0
par SingleCell_StandaloneR.router.pppg$i[0].channel typename "\"ned.IdealChannel\""
par SingleCell_StandaloneR.router.ppp[0].phys$o.channel typename "\"ned.IdealChannel\""
par SingleCell_StandaloneR.router.pppg$i[1].channel typename "\"ned.IdealChannel\""
par SingleCell_StandaloneR.router.ppp[1].phys$o.channel typename "\"ned.IdealChannel\""
par SingleCell_StandaloneR.router.interfaceTable typename "\"inet.networklayer.common.InterfaceTable\""
par SingleCell_StandaloneR.router.interfaceTable displayAddresses false
par SingleCell_StandaloneR.router.cb typename "\"inet.common.MessageDispatcher\""
par SingleCell_StandaloneR.router.cb displayStringTextFormat "\"processed %p pk (%l)\""
par SingleCell_StandaloneR.router.cb forwardServiceRegistration true
par SingleCell_StandaloneR.router.cb forwardProtocolRegistration true
par SingleCell_StandaloneR.router.bl typename "\"inet.common.MessageDispatcher\""
par SingleCell_StandaloneR.router.bl displayStringTextFormat "\"processed %p pk (%l)\""
par SingleCell_StandaloneR.router.bl forwardServiceRegistration true
par SingleCell_StandaloneR.router.bl forwardProtocolRegistration true
par SingleCell_StandaloneR.router.li typename "\"inet.common.MessageDispatcher\""
par SingleCell_StandaloneR.router.li displayStringTextFormat "\"processed %p pk (%l)\""
par SingleCell_StandaloneR.router.li forwardServiceRegistration true
par SingleCell_StandaloneR.router.li forwardProtocolRegistration true
par SingleCell_StandaloneR.router.lo[0].upperLayerIn.channel typename "\"ned.IdealChannel\""
par SingleCell_StandaloneR.router.lo[0].lo.upperLayerOut.channel typename "\"ned.IdealChannel\""
par SingleCell_StandaloneR.router.lo[0].lo typename "\"inet.linklayer.loopback.Loopback\""
par SingleCell_StandaloneR.router.lo[0].lo interfaceTableModule "\"SingleCell_StandaloneR.router.interfaceTable\""
par SingleCell_StandaloneR.router.lo[0].lo mtu 4470B
attr unit B
scalar SingleCell_StandaloneR.router.lo[0].lo rcvdPkFromHl:count 0
attr interpolationmode none
attr recordingmode count
attr source packetReceivedFromUpper
attr title "packets received from higher layer, count"
scalar SingleCell_StandaloneR.router.lo[0].lo rcvdPkFromHl:sum(packetBytes) 0
attr interpolationmode none
attr recordingmode sum(packetBytes)
attr source packetReceivedFromUpper
attr title "packets received from higher layer, sum(packetBytes)"
scalar SingleCell_StandaloneR.router.lo[0].lo passedUpPk:count 0
attr interpolationmode none
attr recordingmode count
attr source packetSentToUpper
attr title "packets passed to higher layer, count"
scalar SingleCell_StandaloneR.router.lo[0].lo passedUpPk:sum(packetBytes) 0
attr interpolationmode none
attr recordingmode sum(packetBytes)
attr source packetSentToUpper
attr title "packets passed to higher layer, sum(packetBytes)"
par SingleCell_StandaloneR.router.lo[0] typename "\"inet.linklayer.loopback.LoopbackInterface\""
par SingleCell_StandaloneR.router.lo[0] displayStringTextFormat "\"%a (%i)\\n%m\""
par SingleCell_StandaloneR.router.lo[0] recordPcap false
par SingleCell_StandaloneR.router.lo[0] numPcapRecorders 0
par SingleCell_StandaloneR.router.lo[0] interfaceTableModule "\"SingleCell_StandaloneR.router.interfaceTable\""
scalar SingleCell_StandaloneR.router.lo[0] packetDropInterfaceDown:count 0
attr interpolationmode none
attr recordingmode count
attr source packetDropReasonIsInterfaceDown(packetDropped)
attr title "packet drops: interface down, count"
scalar SingleCell_StandaloneR.router.lo[0] packetDropInterfaceDown:sum(packetBytes) 0
attr interpolationmode none
attr recordingmode sum(packetBytes)
attr source packetDropReasonIsInterfaceDown(packetDropped)
attr title "packet drops: interface down, sum(packetBytes)"
scalar SingleCell_StandaloneR.router.lo[0] packetDropNoCarrier:count 0
attr interpolationmode none
attr recordingmode count
attr source packetDropReasonIsNoCarrier(packetDropped)
attr title "packet drops: no carrier, count"
scalar SingleCell_StandaloneR.router.lo[0] packetDropNoCarrier:sum(packetBytes) 0
attr interpolationmode none
attr recordingmode sum(packetBytes)
attr source packetDropReasonIsNoCarrier(packetDropped)
attr title "packet drops: no carrier, sum(packetBytes)"
par SingleCell_StandaloneR.router.ppp[0].phys$i.channel typename "\"ned.IdealChannel\""
par SingleCell_StandaloneR.router.ppp[0].ppp.phys$o.channel typename "\"ned.IdealChannel\""
par SingleCell_StandaloneR.router.ppp[0].ppp.upperLayerOut.channel typename "\"ned.IdealChannel\""
par SingleCell_StandaloneR.router.ppp[0].upperLayerIn.channel typename "\"ned.IdealChannel\""
par SingleCell_StandaloneR.router.ppp[0].queue typename "\"inet.queueing.queue.DropTailQueue\""
par SingleCell_StandaloneR.router.ppp[0].queue displayStringTextFormat "\"contains %p pk (%l) pushed %u\\npulled %o removed %r dropped %d\""
par SingleCell_StandaloneR.router.ppp[0].queue packetCapacity 10000
par SingleCell_StandaloneR.router.ppp[0].queue dataCapacity -1b
attr unit b
par SingleCell_StandaloneR.router.ppp[0].queue dropperClass "\"inet::queueing::PacketAtCollectionEndDropper\""
par SingleCell_StandaloneR.router.ppp[0].queue comparatorClass "\"\""
par SingleCell_StandaloneR.router.ppp[0].queue bufferModule "\"\""
scalar SingleCell_StandaloneR.router.ppp[0].queue queueLength:last nan
attr autoWarmupFilter false
attr interpolationmode sample-hold
attr recordingmode last
attr source "warmup(atomic(constant0(packetPushEnded) + count(packetPushStarted) - count(packetPulled) - count(packetRemoved) - count(packetDropped)))"
attr title "queue length, last"
attr unit pk
scalar SingleCell_StandaloneR.router.ppp[0].queue queueLength:max nan
attr autoWarmupFilter false
attr interpolationmode sample-hold
attr recordingmode max
attr source "warmup(atomic(constant0(packetPushEnded) + count(packetPushStarted) - count(packetPulled) - count(packetRemoved) - count(packetDropped)))"
attr title "queue length, max"
attr unit pk
scalar SingleCell_StandaloneR.router.ppp[0].queue queueLength:timeavg -nan
attr autoWarmupFilter false
attr interpolationmode sample-hold
attr recordingmode timeavg
attr source "warmup(atomic(constant0(packetPushEnded) + count(packetPushStarted) - count(packetPulled) - count(packetRemoved) - count(packetDropped)))"
attr title "queue length, timeavg"
attr unit pk
scalar SingleCell_StandaloneR.router.ppp[0].queue queueBitLength:last nan
attr autoWarmupFilter false
attr interpolationmode sample-hold
attr recordingmode last
attr source "warmup(atomic(constant0(packetPushEnded) + sum(packetLength(packetPushStarted)) - sum(packetLength(packetPulled)) - sum(packetLength(packetRemoved)) - sum(packetLength(packetDropped))))"
attr title "queue bit length, last"
attr unit b
scalar SingleCell_StandaloneR.router.ppp[0].queue queueBitLength:max nan
attr autoWarmupFilter false
attr interpolationmode sample-hold
attr recordingmode max
attr source "warmup(atomic(constant0(packetPushEnded) + sum(packetLength(packetPushStarted)) - sum(packetLength(packetPulled)) - sum(packetLength(packetRemoved)) - sum(packetLength(packetDropped))))"
attr title "queue bit length, max"
attr unit b
scalar SingleCell_StandaloneR.router.ppp[0].queue queueBitLength:timeavg -nan
attr autoWarmupFilter false
attr interpolationmode sample-hold
attr recordingmode timeavg
attr source "warmup(atomic(constant0(packetPushEnded) + sum(packetLength(packetPushStarted)) - sum(packetLength(packetPulled)) - sum(packetLength(packetRemoved)) - sum(packetLength(packetDropped))))"
attr title "queue bit length, timeavg"
attr unit b
statistic SingleCell_StandaloneR.router.ppp[0].queue queueingTime:histogram
field count 0
field mean -nan
field stddev nan
field min nan
field max nan
field sum 0
field sqrsum 0
attr interpolationmode none
attr recordingmode histogram
attr source queueingTime(packetPulled)
attr title "queueing times"
attr unit s
bin	-inf	0
bin	0	0
bin	1	0
scalar SingleCell_StandaloneR.router.ppp[0].queue outgoingPackets:count 0
attr recordingmode count
attr source packetPulled
attr title "outgoing packets, count"
attr unit pk
scalar SingleCell_StandaloneR.router.ppp[0].queue outgoingPacketLengths:sum 0
attr interpolationmode none
attr recordingmode sum
attr source packetLength(packetPulled)
attr title "outgoing packet lengths, sum"
attr unit b
statistic SingleCell_StandaloneR.router.ppp[0].queue outgoingPacketLengths:histogram
field count 0
field mean -nan
field stddev nan
field min nan
field max nan
field sum 0
field sqrsum 0
attr interpolationmode none
attr recordingmode histogram
attr source packetLength(packetPulled)
attr title "outgoing packet lengths"
attr unit b
bin	-inf	0
bin	0	0
bin	1	0
statistic SingleCell_StandaloneR.router.ppp[0].queue flowQueueingTime:histogram
field count 0
field mean -nan
field stddev nan
field min nan
field max nan
field sum 0
field sqrsum 0
attr interpolationmode none
attr recordingmode histogram
attr source queueingTime(demuxFlow(packetPulled))
attr title "flow queueing times"
attr unit s
bin	-inf	0
bin	0	0
bin	1	0
scalar SingleCell_StandaloneR.router.ppp[0].queue incomingPackets:count 0
attr recordingmode count
attr source packetPushStarted
attr title "incoming packets, count"
attr unit pk
scalar SingleCell_StandaloneR.router.ppp[0].queue incomingPacketLengths:sum 0
attr interpolationmode none
attr recordingmode sum
attr source packetLength(packetPushStarted)
attr title "incoming packet lengths, sum"
attr unit b
statistic SingleCell_StandaloneR.router.ppp[0].queue incomingPacketLengths:histogram
field count 0
field mean -nan
field stddev nan
field min nan
field max nan
field sum 0
field sqrsum 0
attr interpolationmode none
attr recordingmode histogram
attr source packetLength(packetPushStarted)
attr title "incoming packet lengths"
attr unit b
bin	-inf	0
bin	0	0
bin	1	0
scalar SingleCell_StandaloneR.router.ppp[0].queue droppedPacketsQueueOverflow:count 0
attr interpolationmode none
attr recordingmode count
attr source packetDropReasonIsQueueOverflow(packetDropped)
attr title "dropped packets: queue overflow, count"
attr unit pk
scalar SingleCell_StandaloneR.router.ppp[0].queue droppedPacketLengthsQueueOverflow:sum 0
attr interpolationmode none
attr recordingmode sum
attr source packetLength(packetDropReasonIsQueueOverflow(packetDropped))
attr title "dropped packet lengths: queue overflow, sum"
attr unit b
par SingleCell_StandaloneR.router.ppp[0].ppp typename "\"inet.linklayer.ppp.Ppp\""
par SingleCell_StandaloneR.router.ppp[0].ppp interfaceTableModule "\"SingleCell_StandaloneR.router.interfaceTable\""
par SingleCell_StandaloneR.router.ppp[0].ppp displayStringTextFormat "\"rate: %b\\nsent: %s, rcvd: %r\\nqueue: %q, drop: %d\""
par SingleCell_StandaloneR.router.ppp[0].ppp sendRawBytes false
par SingleCell_StandaloneR.router.ppp[0].ppp mtu 4470B
attr unit B
par SingleCell_StandaloneR.router.ppp[0].ppp stopOperationExtraTime -1s
attr unit s
par SingleCell_StandaloneR.router.ppp[0].ppp stopOperationTimeout 2s
attr unit s
scalar SingleCell_StandaloneR.router.ppp[0].ppp transmissionState:timeavg 0
attr interpolationmode sample-hold
attr recordingmode timeavg
attr source transmissionStateChanged
attr title "tx state, timeavg"
scalar SingleCell_StandaloneR.router.ppp[0].ppp rxPkOk:count 0
attr interpolationmode none
attr recordingmode count
attr source rxPkOk
attr title "packets received OK, count"
scalar SingleCell_StandaloneR.router.ppp[0].ppp rxPkOk:sum(packetBytes) 0
attr interpolationmode none
attr recordingmode sum(packetBytes)
attr source rxPkOk
attr title "packets received OK, sum(packetBytes)"
scalar SingleCell_StandaloneR.router.ppp[0].ppp txPk:count 0
attr interpolationmode none
attr recordingmode count
attr source packetSentToLower
attr title "packets transmitted, count"
scalar SingleCell_StandaloneR.router.ppp[0].ppp txPk:sum(packetBytes) 0
attr interpolationmode none
attr recordingmode sum(packetBytes)
attr source packetSentToLower
attr title "packets transmitted, sum(packetBytes)"
scalar SingleCell_StandaloneR.router.ppp[0].ppp rcvdPkFromHl:count 0
attr interpolationmode none
attr recordingmode count
attr source packetReceivedFromUpper
attr title "packets received from higher layer, count"
scalar SingleCell_StandaloneR.router.ppp[0].ppp rcvdPkFromHl:sum(packetBytes) 0
attr interpolationmode none
attr recordingmode sum(packetBytes)
attr source packetReceivedFromUpper
attr title "packets received from higher layer, sum(packetBytes)"
scalar SingleCell_StandaloneR.router.ppp[0].ppp passedUpPk:count 0
attr interpolationmode none
attr recordingmode count
attr source packetSentToUpper
attr title "packets passed to higher layer, count"
scalar SingleCell_StandaloneR.router.ppp[0].ppp passedUpPk:sum(packetBytes) 0
attr interpolationmode none
attr recordingmode sum(packetBytes)
attr source packetSentToUpper
attr title "packets passed to higher layer, sum(packetBytes)"
scalar SingleCell_StandaloneR.router.ppp[0].ppp packetDropIncorrectlyReceived:count 0
attr interpolationmode none
attr recordingmode count
attr source packetDropReasonIsIncorrectlyReceived(packetDropped)
attr title "packet drop: incorrectly received, count"
scalar SingleCell_StandaloneR.router.ppp[0].ppp packetDropIncorrectlyReceived:sum(packetBytes) 0
attr interpolationmode none
attr recordingmode sum(packetBytes)
attr source packetDropReasonIsIncorrectlyReceived(packetDropped)
attr title "packet drop: incorrectly received, sum(packetBytes)"
scalar SingleCell_StandaloneR.router.ppp[0].ppp packetDropInterfaceDown:count 0
attr interpolationmode none
attr recordingmode count
attr source packetDropReasonIsInterfaceDown(packetDropped)
attr title "packet drop: interface down, count"
scalar SingleCell_StandaloneR.router.ppp[0].ppp packetDropInterfaceDown:sum(packetBytes) 0
attr interpolationmode none
attr recordingmode sum(packetBytes)
attr source packetDropReasonIsInterfaceDown(packetDropped)
attr title "packet drop: interface down, sum(packetBytes)"
par SingleCell_StandaloneR.router.ppp[0] typename "\"inet.linklayer.ppp.PppInterface\""
par SingleCell_StandaloneR.router.ppp[0] displayStringTextFormat "\"%a (%i)\\n%m\""
par SingleCell_StandaloneR.router.ppp[0] recordPcap false
par SingleCell_StandaloneR.router.ppp[0] numPcapRecorders 0
par SingleCell_StandaloneR.router.ppp[0] interfaceTableModule "\"SingleCell_StandaloneR.router.interfaceTable\""
scalar SingleCell_StandaloneR.router.ppp[0] packetDropInterfaceDown:count 0
attr interpolationmode none
attr recordingmode count
attr source packetDropReasonIsInterfaceDown(packetDropped)
attr title "packet drops: interface down, count"
scalar SingleCell_StandaloneR.router.ppp[0] packetDropInterfaceDown:sum(packetBytes) 0
attr interpolationmode none
attr recordingmode sum(packetBytes)
attr source packetDropReasonIsInterfaceDown(packetDropped)
attr title "packet drops: interface down, sum(packetBytes)"
scalar SingleCell_StandaloneR.router.ppp[0] packetDropNoCarrier:count 0
attr interpolationmode none
attr recordingmode count
attr source packetDropReasonIsNoCarrier(packetDropped)
attr title "packet drops: no carrier, count"
scalar SingleCell_StandaloneR.router.ppp[0] packetDropNoCarrier:sum(packetBytes) 0
attr interpolationmode none
attr recordingmode sum(packetBytes)
attr source packetDropReasonIsNoCarrier(packetDropped)
attr title "packet drops: no carrier, sum(packetBytes)"
par SingleCell_StandaloneR.router.ppp[1].phys$i.channel typename "\"ned.IdealChannel\""
par SingleCell_StandaloneR.router.ppp[1].ppp.phys$o.channel typename "\"ned.IdealChannel\""
par SingleCell_StandaloneR.router.ppp[1].ppp.upperLayerOut.channel typename "\"ned.IdealChannel\""
par SingleCell_StandaloneR.router.ppp[1].upperLayerIn.channel typename "\"ned.IdealChannel\""
par SingleCell_StandaloneR.router.ppp[1].queue typename "\"inet.queueing.queue.DropTailQueue\""
par SingleCell_StandaloneR.router.ppp[1].queue displayStringTextFormat "\"contains %p pk (%l) pushed %u\\npulled %o removed %r dropped %d\""
par SingleCell_StandaloneR.router.ppp[1].queue packetCapacity 10000
par SingleCell_StandaloneR.router.ppp[1].queue dataCapacity -1b
attr unit b
par SingleCell_StandaloneR.router.ppp[1].queue dropperClass "\"inet::queueing::PacketAtCollectionEndDropper\""
par SingleCell_StandaloneR.router.ppp[1].queue comparatorClass "\"\""
par SingleCell_StandaloneR.router.ppp[1].queue bufferModule "\"\""
scalar SingleCell_StandaloneR.router.ppp[1].queue queueLength:last nan
attr autoWarmupFilter false
attr interpolationmode sample-hold
attr recordingmode last
attr source "warmup(atomic(constant0(packetPushEnded) + count(packetPushStarted) - count(packetPulled) - count(packetRemoved) - count(packetDropped)))"
attr title "queue length, last"
attr unit pk
scalar SingleCell_StandaloneR.router.ppp[1].queue queueLength:max nan
attr autoWarmupFilter false
attr interpolationmode sample-hold
attr recordingmode max
attr source "warmup(atomic(constant0(packetPushEnded) + count(packetPushStarted) - count(packetPulled) - count(packetRemoved) - count(packetDropped)))"
attr title "queue length, max"
attr unit pk
scalar SingleCell_StandaloneR.router.ppp[1].queue queueLength:timeavg -nan
attr autoWarmupFilter false
attr interpolationmode sample-hold
attr recordingmode timeavg
attr source "warmup(atomic(constant0(packetPushEnded) + count(packetPushStarted) - count(packetPulled) - count(packetRemoved) - count(packetDropped)))"
attr title "queue length, timeavg"
attr unit pk
scalar SingleCell_StandaloneR.router.ppp[1].queue queueBitLength:last nan
attr autoWarmupFilter false
attr interpolationmode sample-hold
attr recordingmode last
attr source "warmup(atomic(constant0(packetPushEnded) + sum(packetLength(packetPushStarted)) - sum(packetLength(packetPulled)) - sum(packetLength(packetRemoved)) - sum(packetLength(packetDropped))))"
attr title "queue bit length, last"
attr unit b
scalar SingleCell_StandaloneR.router.ppp[1].queue queueBitLength:max nan
attr autoWarmupFilter false
attr interpolationmode sample-hold
attr recordingmode max
attr source "warmup(atomic(constant0(packetPushEnded) + sum(packetLength(packetPushStarted)) - sum(packetLength(packetPulled)) - sum(packetLength(packetRemoved)) - sum(packetLength(packetDropped))))"
attr title "queue bit length, max"
attr unit b
scalar SingleCell_StandaloneR.router.ppp[1].queue queueBitLength:timeavg -nan
attr autoWarmupFilter false
attr interpolationmode sample-hold
attr recordingmode timeavg
attr source "warmup(atomic(constant0(packetPushEnded) + sum(packetLength(packetPushStarted)) - sum(packetLength(packetPulled)) - sum(packetLength(packetRemoved)) - sum(packetLength(packetDropped))))"
attr title "queue bit length, timeavg"
attr unit b
statistic SingleCell_StandaloneR.router.ppp[1].queue queueingTime:histogram
field count 0
field mean -nan
field stddev nan
field min nan
field max nan
field sum 0
field sqrsum 0
attr interpolationmode none
attr recordingmode histogram
attr source queueingTime(packetPulled)
attr title "queueing times"
attr unit s
bin	-inf	0
bin	0	0
bin	1	0
scalar SingleCell_StandaloneR.router.ppp[1].queue outgoingPackets:count 0
attr recordingmode count
attr source packetPulled
attr title "outgoing packets, count"
attr unit pk
scalar SingleCell_StandaloneR.router.ppp[1].queue outgoingPacketLengths:sum 0
attr interpolationmode none
attr recordingmode sum
attr source packetLength(packetPulled)
attr title "outgoing packet lengths, sum"
attr unit b
statistic SingleCell_StandaloneR.router.ppp[1].queue outgoingPacketLengths:histogram
field count 0
field mean -nan
field stddev nan
field min nan
field max nan
field sum 0
field sqrsum 0
attr interpolationmode none
attr recordingmode histogram
attr source packetLength(packetPulled)
attr title "outgoing packet lengths"
attr unit b
bin	-inf	0
bin	0	0
bin	1	0
statistic SingleCell_StandaloneR.router.ppp[1].queue flowQueueingTime:histogram
field count 0
field mean -nan
field stddev nan
field min nan
field max nan
field sum 0
field sqrsum 0
attr interpolationmode none
attr recordingmode histogram
attr source queueingTime(demuxFlow(packetPulled))
attr title "flow queueing times"
attr unit s
bin	-inf	0
bin	0	0
bin	1	0
scalar SingleCell_StandaloneR.router.ppp[1].queue incomingPackets:count 0
attr recordingmode count
attr source packetPushStarted
attr title "incoming packets, count"
attr unit pk
scalar SingleCell_StandaloneR.router.ppp[1].queue incomingPacketLengths:sum 0
attr interpolationmode none
attr recordingmode sum
attr source packetLength(packetPushStarted)
attr title "incoming packet lengths, sum"
attr unit b
statistic SingleCell_StandaloneR.router.ppp[1].queue incomingPacketLengths:histogram
field count 0
field mean -nan
field stddev nan
field min nan
field max nan
field sum 0
field sqrsum 0
attr interpolationmode none
attr recordingmode histogram
attr source packetLength(packetPushStarted)
attr title "incoming packet lengths"
attr unit b
bin	-inf	0
bin	0	0
bin	1	0
scalar SingleCell_StandaloneR.router.ppp[1].queue droppedPacketsQueueOverflow:count 0
attr interpolationmode none
attr recordingmode count
attr source packetDropReasonIsQueueOverflow(packetDropped)
attr title "dropped packets: queue overflow, count"
attr unit pk
scalar SingleCell_StandaloneR.router.ppp[1].queue droppedPacketLengthsQueueOverflow:sum 0
attr interpolationmode none
attr recordingmode sum
attr source packetLength(packetDropReasonIsQueueOverflow(packetDropped))
attr title "dropped packet lengths: queue overflow, sum"
attr unit b
par SingleCell_StandaloneR.router.ppp[1].ppp typename "\"inet.linklayer.ppp.Ppp\""
par SingleCell_StandaloneR.router.ppp[1].ppp interfaceTableModule "\"SingleCell_StandaloneR.router.interfaceTable\""
par SingleCell_StandaloneR.router.ppp[1].ppp displayStringTextFormat "\"rate: %b\\nsent: %s, rcvd: %r\\nqueue: %q, drop: %d\""
par SingleCell_StandaloneR.router.ppp[1].ppp sendRawBytes false
par SingleCell_StandaloneR.router.ppp[1].ppp mtu 4470B
attr unit B
par SingleCell_StandaloneR.router.ppp[1].ppp stopOperationExtraTime -1s
attr unit s
par SingleCell_StandaloneR.router.ppp[1].ppp stopOperationTimeout 2s
attr unit s
scalar SingleCell_StandaloneR.router.ppp[1].ppp transmissionState:timeavg 0
attr interpolationmode sample-hold
attr recordingmode timeavg
attr source transmissionStateChanged
attr title "tx state, timeavg"
scalar SingleCell_StandaloneR.router.ppp[1].ppp rxPkOk:count 0
attr interpolationmode none
attr recordingmode count
attr source rxPkOk
attr title "packets received OK, count"
scalar SingleCell_StandaloneR.router.ppp[1].ppp rxPkOk:sum(packetBytes) 0
attr interpolationmode none
attr recordingmode sum(packetBytes)
attr source rxPkOk
attr title "packets received OK, sum(packetBytes)"
scalar SingleCell_StandaloneR.router.ppp[1].ppp txPk:count 0
attr interpolationmode none
attr recordingmode count
attr source packetSentToLower
attr title "packets transmitted, count"
scalar SingleCell_StandaloneR.router.ppp[1].ppp txPk:sum(packetBytes) 0
attr interpolationmode none
attr recordingmode sum(packetBytes)
attr source packetSentToLower
attr title "packets transmitted, sum(packetBytes)"
scalar SingleCell_StandaloneR.router.ppp[1].ppp rcvdPkFromHl:count 0
attr interpolationmode none
attr recordingmode count
attr source packetReceivedFromUpper
attr title "packets received from higher layer, count"
scalar SingleCell_StandaloneR.router.ppp[1].ppp rcvdPkFromHl:sum(packetBytes) 0
attr interpolationmode none
attr recordingmode sum(packetBytes)
attr source packetReceivedFromUpper
attr title "packets received from higher layer, sum(packetBytes)"
scalar SingleCell_StandaloneR.router.ppp[1].ppp passedUpPk:count 0
attr interpolationmode none
attr recordingmode count
attr source packetSentToUpper
attr title "packets passed to higher layer, count"
scalar SingleCell_StandaloneR.router.ppp[1].ppp passedUpPk:sum(packetBytes) 0
attr interpolationmode none
attr recordingmode sum(packetBytes)
attr source packetSentToUpper
attr title "packets passed to higher layer, sum(packetBytes)"
scalar SingleCell_StandaloneR.router.ppp[1].ppp packetDropIncorrectlyReceived:count 0
attr interpolationmode none
attr recordingmode count
attr source packetDropReasonIsIncorrectlyReceived(packetDropped)
attr title "packet drop: incorrectly received, count"
scalar SingleCell_StandaloneR.router.ppp[1].ppp packetDropIncorrectlyReceived:sum(packetBytes) 0
attr interpolationmode none
attr recordingmode sum(packetBytes)
attr source packetDropReasonIsIncorrectlyReceived(packetDropped)
attr title "packet drop: incorrectly received, sum(packetBytes)"
scalar SingleCell_StandaloneR.router.ppp[1].ppp packetDropInterfaceDown:count 0
attr interpolationmode none
attr recordingmode count
attr source packetDropReasonIsInterfaceDown(packetDropped)
attr title "packet drop: interface down, count"
scalar SingleCell_StandaloneR.router.ppp[1].ppp packetDropInterfaceDown:sum(packetBytes) 0
attr interpolationmode none
attr recordingmode sum(packetBytes)
attr source packetDropReasonIsInterfaceDown(packetDropped)
attr title "packet drop: interface down, sum(packetBytes)"
par SingleCell_StandaloneR.router.ppp[1] typename "\"inet.linklayer.ppp.PppInterface\""
par SingleCell_StandaloneR.router.ppp[1] displayStringTextFormat "\"%a (%i)\\n%m\""
par SingleCell_StandaloneR.router.ppp[1] recordPcap false
par SingleCell_StandaloneR.router.ppp[1] numPcapRecorders 0
par SingleCell_StandaloneR.router.ppp[1] interfaceTableModule "\"SingleCell_StandaloneR.router.interfaceTable\""
scalar SingleCell_StandaloneR.router.ppp[1] packetDropInterfaceDown:count 0
attr interpolationmode none
attr recordingmode count
attr source packetDropReasonIsInterfaceDown(packetDropped)
attr title "packet drops: interface down, count"
scalar SingleCell_StandaloneR.router.ppp[1] packetDropInterfaceDown:sum(packetBytes) 0
attr interpolationmode none
attr recordingmode sum(packetBytes)
attr source packetDropReasonIsInterfaceDown(packetDropped)
attr title "packet drops: interface down, sum(packetBytes)"
scalar SingleCell_StandaloneR.router.ppp[1] packetDropNoCarrier:count 0
attr interpolationmode none
attr recordingmode count
attr source packetDropReasonIsNoCarrier(packetDropped)
attr title "packet drops: no carrier, count"
scalar SingleCell_StandaloneR.router.ppp[1] packetDropNoCarrier:sum(packetBytes) 0
attr interpolationmode none
attr recordingmode sum(packetBytes)
attr source packetDropReasonIsNoCarrier(packetDropped)
attr title "packet drops: no carrier, sum(packetBytes)"
par SingleCell_StandaloneR.router.ipv4.transportIn.channel typename "\"ned.IdealChannel\""
par SingleCell_StandaloneR.router.ipv4.up.out[0].channel typename "\"ned.IdealChannel\""
par SingleCell_StandaloneR.router.ipv4.lp.out[2].channel typename "\"ned.IdealChannel\""
par SingleCell_StandaloneR.router.ipv4.ifIn.channel typename "\"ned.IdealChannel\""
par SingleCell_StandaloneR.router.ipv4.configurator typename "\"inet.networklayer.configurator.ipv4.Ipv4NodeConfigurator\""
par SingleCell_StandaloneR.router.ipv4.configurator interfaceTableModule "\"SingleCell_StandaloneR.router.interfaceTable\""
par SingleCell_StandaloneR.router.ipv4.configurator routingTableModule "\"SingleCell_StandaloneR.router.ipv4.routingTable\""
par SingleCell_StandaloneR.router.ipv4.configurator networkConfiguratorModule "\"configurator\""
par SingleCell_StandaloneR.router.ipv4.configurator configureRoutingTable true
par SingleCell_StandaloneR.router.ipv4.routingTable typename "\"inet.networklayer.ipv4.Ipv4RoutingTable\""
par SingleCell_StandaloneR.router.ipv4.routingTable interfaceTableModule "\"SingleCell_StandaloneR.router.interfaceTable\""
par SingleCell_StandaloneR.router.ipv4.routingTable routerId "\"auto\""
par SingleCell_StandaloneR.router.ipv4.routingTable netmaskRoutes "\"*\""
par SingleCell_StandaloneR.router.ipv4.routingTable forwarding true
par SingleCell_StandaloneR.router.ipv4.routingTable multicastForwarding false
par SingleCell_StandaloneR.router.ipv4.routingTable useAdminDist false
par SingleCell_StandaloneR.router.ipv4.routingTable routingFile "\"\""
par SingleCell_StandaloneR.router.ipv4.natTable typename "\"inet.networklayer.ipv4.Ipv4NatTable\""
par SingleCell_StandaloneR.router.ipv4.natTable networkProtocolModule "\"^.ip\""
par SingleCell_StandaloneR.router.ipv4.natTable config "<config/> at content:1"
par SingleCell_StandaloneR.router.ipv4.up typename "\"inet.common.MessageDispatcher\""
par SingleCell_StandaloneR.router.ipv4.up displayStringTextFormat "\"processed %p pk (%l)\""
par SingleCell_StandaloneR.router.ipv4.up forwardServiceRegistration true
par SingleCell_StandaloneR.router.ipv4.up forwardProtocolRegistration true
par SingleCell_StandaloneR.router.ipv4.igmp typename "\"inet.networklayer.ipv4.Igmpv2\""
par SingleCell_StandaloneR.router.ipv4.igmp interfaceTableModule "\"SingleCell_StandaloneR.router.interfaceTable\""
par SingleCell_StandaloneR.router.ipv4.igmp routingTableModule "\"SingleCell_StandaloneR.router.ipv4.routingTable\""
par SingleCell_StandaloneR.router.ipv4.igmp crcMode "\"declared\""
attr enum declared,computed
par SingleCell_StandaloneR.router.ipv4.igmp enabled true
par SingleCell_StandaloneR.router.ipv4.igmp robustnessVariable 2
par SingleCell_StandaloneR.router.ipv4.igmp queryInterval 125s
attr unit s
par SingleCell_StandaloneR.router.ipv4.igmp queryResponseInterval 10s
attr unit s
par SingleCell_StandaloneR.router.ipv4.igmp groupMembershipInterval 260s
attr unit s
par SingleCell_StandaloneR.router.ipv4.igmp otherQuerierPresentInterval 255s
attr unit s
par SingleCell_StandaloneR.router.ipv4.igmp startupQueryInterval 31.25s
attr unit s
par SingleCell_StandaloneR.router.ipv4.igmp startupQueryCount 2
par SingleCell_StandaloneR.router.ipv4.igmp lastMemberQueryInterval 1s
attr unit s
par SingleCell_StandaloneR.router.ipv4.igmp lastMemberQueryCount 2
par SingleCell_StandaloneR.router.ipv4.igmp unsolicitedReportInterval 10s
attr unit s
par SingleCell_StandaloneR.router.ipv4.icmp typename "\"inet.networklayer.ipv4.Icmp\""
par SingleCell_StandaloneR.router.ipv4.icmp interfaceTableModule "\"SingleCell_StandaloneR.router.interfaceTable\""
par SingleCell_StandaloneR.router.ipv4.icmp routingTableModule "\"SingleCell_StandaloneR.router.ipv4.routingTable\""
par SingleCell_StandaloneR.router.ipv4.icmp crcMode "\"declared\""
attr enum declared,computed
attr mutable ""
par SingleCell_StandaloneR.router.ipv4.icmp quoteLength 8B
attr mutable ""
attr unit B
par SingleCell_StandaloneR.router.ipv4.mp typename "\"inet.common.MessageDispatcher\""
par SingleCell_StandaloneR.router.ipv4.mp displayStringTextFormat "\"processed %p pk (%l)\""
par SingleCell_StandaloneR.router.ipv4.mp forwardServiceRegistration true
par SingleCell_StandaloneR.router.ipv4.mp forwardProtocolRegistration true
par SingleCell_StandaloneR.router.ipv4.ip typename "\"inet.networklayer.ipv4.Ipv4\""
par SingleCell_StandaloneR.router.ipv4.ip interfaceTableModule "\"SingleCell_StandaloneR.router.interfaceTable\""
par SingleCell_StandaloneR.router.ipv4.ip routingTableModule "\"SingleCell_StandaloneR.router.ipv4.routingTable\""
par SingleCell_StandaloneR.router.ipv4.ip arpModule "\"SingleCell_StandaloneR.router.ipv4.arp\""
par SingleCell_StandaloneR.router.ipv4.ip icmpModule "\"SingleCell_StandaloneR.router.ipv4.icmp\""
par SingleCell_StandaloneR.router.ipv4.ip crcMode "\"declared\""
attr enum declared,computed
par SingleCell_StandaloneR.router.ipv4.ip timeToLive 32
par SingleCell_StandaloneR.router.ipv4.ip multicastTimeToLive 32
par SingleCell_StandaloneR.router.ipv4.ip fragmentTimeout 60s
attr unit s
par SingleCell_StandaloneR.router.ipv4.ip limitedBroadcast false
par SingleCell_StandaloneR.router.ipv4.ip directBroadcastInterfaces "\"\""
scalar SingleCell_StandaloneR.router.ipv4.ip packetDropAddressResolutionFailed:count 0
attr interpolationmode none
attr recordingmode count
attr source packetDropReasonIsAddressResolutionFailed(packetDropped)
attr title "packet drop: address resolution failed, count"
scalar SingleCell_StandaloneR.router.ipv4.ip packetDropAddressResolutionFailed:sum(packetBytes) 0
attr interpolationmode none
attr recordingmode sum(packetBytes)
attr source packetDropReasonIsAddressResolutionFailed(packetDropped)
attr title "packet drop: address resolution failed, sum(packetBytes)"
scalar SingleCell_StandaloneR.router.ipv4.ip packetDropHopLimitReached:count 0
attr interpolationmode none
attr recordingmode count
attr source packetDropReasonIsHopLimitReached(packetDropped)
attr title "packet drop: hop limit reached, count"
scalar SingleCell_StandaloneR.router.ipv4.ip packetDropHopLimitReached:sum(packetBytes) 0
attr interpolationmode none
attr recordingmode sum(packetBytes)
attr source packetDropReasonIsHopLimitReached(packetDropped)
attr title "packet drop: hop limit reached, sum(packetBytes)"
scalar SingleCell_StandaloneR.router.ipv4.ip packetDropForwardingDisabled:count 0
attr interpolationmode none
attr recordingmode count
attr source packetDropReasonIsForwardingDisabled(packetDropped)
attr title "packet drop: forwarding disabled, count"
scalar SingleCell_StandaloneR.router.ipv4.ip packetDropForwardingDisabled:sum(packetBytes) 0
attr interpolationmode none
attr recordingmode sum(packetBytes)
attr source packetDropReasonIsForwardingDisabled(packetDropped)
attr title "packet drop: forwarding disabled, sum(packetBytes)"
scalar SingleCell_StandaloneR.router.ipv4.ip packetDropNoInterfaceFound:count 0
attr interpolationmode none
attr recordingmode count
attr source packetDropReasonIsNoInterfaceFound(packetDropped)
attr title "packet drop: no interface found, count"
scalar SingleCell_StandaloneR.router.ipv4.ip packetDropNoInterfaceFound:sum(packetBytes) 0
attr interpolationmode none
attr recordingmode sum(packetBytes)
attr source packetDropReasonIsNoInterfaceFound(packetDropped)
attr title "packet drop: no interface found, sum(packetBytes)"
scalar SingleCell_StandaloneR.router.ipv4.ip packetDropNoRouteFound:count 0
attr interpolationmode none
attr recordingmode count
attr source packetDropReasonIsNoRouteFound(packetDropped)
attr title "packet drop: no route found, count"
scalar SingleCell_StandaloneR.router.ipv4.ip packetDropNoRouteFound:sum(packetBytes) 0
attr interpolationmode none
attr recordingmode sum(packetBytes)
attr source packetDropReasonIsNoRouteFound(packetDropped)
attr title "packet drop: no route found, sum(packetBytes)"
scalar SingleCell_StandaloneR.router.ipv4.ip packetDropUndefined:count 0
attr interpolationmode none
attr recordingmode count
attr source packetDropReasonIsUndefined(packetDropped)
attr title "packet drop: undefined, count"
scalar SingleCell_StandaloneR.router.ipv4.ip packetDropUndefined:sum(packetBytes) 0
attr interpolationmode none
attr recordingmode sum(packetBytes)
attr source packetDropReasonIsUndefined(packetDropped)
attr title "packet drop: undefined, sum(packetBytes)"
par SingleCell_StandaloneR.router.ipv4.arp typename "\"inet.networklayer.arp.ipv4.Arp\""
par SingleCell_StandaloneR.router.ipv4.arp interfaceTableModule "\"SingleCell_StandaloneR.router.interfaceTable\""
par SingleCell_StandaloneR.router.ipv4.arp routingTableModule "\"SingleCell_StandaloneR.router.ipv4.routingTable\""
par SingleCell_StandaloneR.router.ipv4.arp retryTimeout 1s
attr unit s
par SingleCell_StandaloneR.router.ipv4.arp retryCount 3
par SingleCell_StandaloneR.router.ipv4.arp cacheTimeout 120s
attr unit s
par SingleCell_StandaloneR.router.ipv4.arp proxyArpInterfaces "\"*\""
scalar SingleCell_StandaloneR.router.ipv4.arp arpResolutionFailed:count 0
attr recordingmode count
attr title "ARP failed resolutions, count"
scalar SingleCell_StandaloneR.router.ipv4.arp arpResolutionCompleted:count 0
attr recordingmode count
attr title "ARP completed resolutions, count"
scalar SingleCell_StandaloneR.router.ipv4.arp arpResolutionInitiated:count 0
attr recordingmode count
attr title "ARP initiated resolutions, count"
scalar SingleCell_StandaloneR.router.ipv4.arp arpReplySent:count 0
attr recordingmode count
attr source arpReplySent
attr title "ARP replies sent, count"
scalar SingleCell_StandaloneR.router.ipv4.arp arpReplySent:sum(packetBytes) 0
attr recordingmode sum(packetBytes)
attr source arpReplySent
attr title "ARP replies sent, sum(packetBytes)"
scalar SingleCell_StandaloneR.router.ipv4.arp arpRequestSent:count 0
attr recordingmode count
attr source arpRequestSent
attr title "ARP request sent, count"
scalar SingleCell_StandaloneR.router.ipv4.arp arpRequestSent:sum(packetBytes) 0
attr recordingmode sum(packetBytes)
attr source arpRequestSent
attr title "ARP request sent, sum(packetBytes)"
par SingleCell_StandaloneR.router.ipv4.lp typename "\"inet.common.MessageDispatcher\""
par SingleCell_StandaloneR.router.ipv4.lp displayStringTextFormat "\"processed %p pk (%l)\""
par SingleCell_StandaloneR.router.ipv4.lp forwardServiceRegistration true
par SingleCell_StandaloneR.router.ipv4.lp forwardProtocolRegistration true
par SingleCell_StandaloneR.router.ipv4 typename "\"inet.networklayer.ipv4.Ipv4NetworkLayer\""
par SingleCell_StandaloneR.router.ipv4 forwarding true
par SingleCell_StandaloneR.router.ipv4 multicastForwarding false
par SingleCell_StandaloneR.router.ipv4 interfaceTableModule "\"SingleCell_StandaloneR.router.interfaceTable\""
par SingleCell_StandaloneR.router.ipv4 displayStringTextFormat "\"%i\""
par SingleCell_StandaloneR.router.nl typename "\"inet.common.MessageDispatcher\""
par SingleCell_StandaloneR.router.nl displayStringTextFormat "\"processed %p pk (%l)\""
par SingleCell_StandaloneR.router.nl forwardServiceRegistration true
par SingleCell_StandaloneR.router.nl forwardProtocolRegistration true
par SingleCell_StandaloneR.router.tn typename "\"inet.common.MessageDispatcher\""
[...]
par SingleCell_StandaloneR.ue[9].cellularNic PacketFlowManagerType "\"PacketFlowManagerUe\""
par SingleCell_StandaloneR.ue[9].cellularNic hasRNISupport false
par SingleCell_StandaloneR.ue[9].cellularNic LtePhyType "\"NRPhyUe\""
par SingleCell_StandaloneR.ue[9].cellularNic nodeType "\"UE\""
par SingleCell_StandaloneR.ue[9].cellularNic processingDelayIn 0s
attr unit s
par SingleCell_StandaloneR.ue[9].cellularNic processingDelayOut 0s
attr unit s
par SingleCell_StandaloneR.ue[9].cellularNic LteChannelModelType "\"LteRealisticChannelModel\""
par SingleCell_StandaloneR.ue[9].cellularNic d2dCapable true
par SingleCell_StandaloneR.ue[9].cellularNic dualConnectivityEnabled false
par SingleCell_StandaloneR.ue[9].cellularNic numCarriers 1
par SingleCell_StandaloneR.ue[9].cellularNic address "\"0A-AA-00-00-00-0B\""
attr mutable ""
par SingleCell_StandaloneR.ue[9].cellularNic d2dInitialMode false
par SingleCell_StandaloneR.ue[9].cellularNic NRMacType "\"NRMacUe\""
par SingleCell_StandaloneR.ue[9].cellularNic NRPhyType "\"NRPhyUe\""
par SingleCell_StandaloneR.ue[9].cellularNic NRChannelModelType "\"NRChannelModel_3GPP38_901\""
par SingleCell_StandaloneR.ue[9].cellularNic NRPacketFlowManagerType "\"NRPacketFlowManagerUe\""
par SingleCell_StandaloneR.ue[9].cellularNic numNRCarriers 1
scalar SingleCell_StandaloneR.ue[9].cellularNic packetDropInterfaceDown:count 0
attr interpolationmode none
attr recordingmode count
attr source packetDropReasonIsInterfaceDown(packetDropped)
attr title "packet drops: interface down, count"
scalar SingleCell_StandaloneR.ue[9].cellularNic packetDropInterfaceDown:sum(packetBytes) 0
attr interpolationmode none
attr recordingmode sum(packetBytes)
attr source packetDropReasonIsInterfaceDown(packetDropped)
attr title "packet drops: interface down, sum(packetBytes)"
scalar SingleCell_StandaloneR.ue[9].cellularNic packetDropNoCarrier:count 0
attr interpolationmode none
attr recordingmode count
attr source packetDropReasonIsNoCarrier(packetDropped)
attr title "packet drops: no carrier, count"
scalar SingleCell_StandaloneR.ue[9].cellularNic packetDropNoCarrier:sum(packetBytes) 0
attr interpolationmode none
attr recordingmode sum(packetBytes)
attr source packetDropReasonIsNoCarrier(packetDropped)
attr title "packet drops: no carrier, sum(packetBytes)"
par SingleCell_StandaloneR.ue[9].encap typename "\"inet.linklayer.ethernet.basic.EthernetEncapsulation\""
par SingleCell_StandaloneR.ue[9].encap registerProtocol true
par SingleCell_StandaloneR.ue[9].encap interfaceTableModule "\"SingleCell_StandaloneR.ue[9].interfaceTable\""
par SingleCell_StandaloneR.ue[9].encap fcsMode "\"declared\""
attr enum declared,computed
par SingleCell_StandaloneR.ue[9].encap stopOperationExtraTime -1s
attr unit s
par SingleCell_StandaloneR.ue[9].encap stopOperationTimeout 2s
attr unit s
scalar SingleCell_StandaloneR.ue[9].encap pauseSent:count 0
attr recordingmode count
attr title "pause sent, count"
scalar SingleCell_StandaloneR.ue[9].encap pauseSent:sum 0
attr recordingmode sum
attr title "pause sent, sum"
scalar SingleCell_StandaloneR.ue[9].encap decapPk:count 0
attr interpolationmode none
attr recordingmode count
attr source decapPk
attr title "packets decapsulated, count"
scalar SingleCell_StandaloneR.ue[9].encap decapPk:sum(packetBytes) 0
attr interpolationmode none
attr recordingmode sum(packetBytes)
attr source decapPk
attr title "packets decapsulated, sum(packetBytes)"
scalar SingleCell_StandaloneR.ue[9].encap encapPk:count 0
attr interpolationmode none
attr recordingmode count
attr source encapPk
attr title "packets encapsulated, count"
scalar SingleCell_StandaloneR.ue[9].encap encapPk:sum(packetBytes) 0
attr interpolationmode none
attr recordingmode sum(packetBytes)
attr source encapPk
attr title "packets encapsulated, sum(packetBytes)"
par SingleCell_StandaloneR.ue[9].ipv4.transportIn.channel typename "\"ned.IdealChannel\""
par SingleCell_StandaloneR.ue[9].ipv4.up.out[0].channel typename "\"ned.IdealChannel\""
par SingleCell_StandaloneR.ue[9].ipv4.lp.out[2].channel typename "\"ned.IdealChannel\""
par SingleCell_StandaloneR.ue[9].ipv4.ifIn.channel typename "\"ned.IdealChannel\""
par SingleCell_StandaloneR.ue[9].ipv4.configurator typename "\"inet.networklayer.configurator.ipv4.Ipv4NodeConfigurator\""
par SingleCell_StandaloneR.ue[9].ipv4.configurator interfaceTableModule "\"SingleCell_StandaloneR.ue[9].interfaceTable\""
par SingleCell_StandaloneR.ue[9].ipv4.configurator routingTableModule "\"SingleCell_StandaloneR.ue[9].ipv4.routingTable\""
par SingleCell_StandaloneR.ue[9].ipv4.configurator networkConfiguratorModule "\"configurator\""
par SingleCell_StandaloneR.ue[9].ipv4.configurator configureRoutingTable true
par SingleCell_StandaloneR.ue[9].ipv4.routingTable typename "\"inet.networklayer.ipv4.Ipv4RoutingTable\""
par SingleCell_StandaloneR.ue[9].ipv4.routingTable interfaceTableModule "\"SingleCell_StandaloneR.ue[9].interfaceTable\""
par SingleCell_StandaloneR.ue[9].ipv4.routingTable routerId "\"auto\""
par SingleCell_StandaloneR.ue[9].ipv4.routingTable netmaskRoutes "\"*\""
par SingleCell_StandaloneR.ue[9].ipv4.routingTable forwarding false
par SingleCell_StandaloneR.ue[9].ipv4.routingTable multicastForwarding false
par SingleCell_StandaloneR.ue[9].ipv4.routingTable useAdminDist false
par SingleCell_StandaloneR.ue[9].ipv4.routingTable routingFile "\"\""
par SingleCell_StandaloneR.ue[9].ipv4.natTable typename "\"inet.networklayer.ipv4.Ipv4NatTable\""
par SingleCell_StandaloneR.ue[9].ipv4.natTable networkProtocolModule "\"^.ip\""
par SingleCell_StandaloneR.ue[9].ipv4.natTable config "<config/> at content:1"
par SingleCell_StandaloneR.ue[9].ipv4.up typename "\"inet.common.MessageDispatcher\""
par SingleCell_StandaloneR.ue[9].ipv4.up displayStringTextFormat "\"processed %p pk (%l)\""
par SingleCell_StandaloneR.ue[9].ipv4.up forwardServiceRegistration true
par SingleCell_StandaloneR.ue[9].ipv4.up forwardProtocolRegistration true
par SingleCell_StandaloneR.ue[9].ipv4.igmp typename "\"inet.networklayer.ipv4.Igmpv2\""
par SingleCell_StandaloneR.ue[9].ipv4.igmp interfaceTableModule "\"SingleCell_StandaloneR.ue[9].interfaceTable\""
par SingleCell_StandaloneR.ue[9].ipv4.igmp routingTableModule "\"SingleCell_StandaloneR.ue[9].ipv4.routingTable\""
par SingleCell_StandaloneR.ue[9].ipv4.igmp crcMode "\"declared\""
attr enum declared,computed
par SingleCell_StandaloneR.ue[9].ipv4.igmp enabled true
par SingleCell_StandaloneR.ue[9].ipv4.igmp robustnessVariable 2
par SingleCell_StandaloneR.ue[9].ipv4.igmp queryInterval 125s
attr unit s
par SingleCell_StandaloneR.ue[9].ipv4.igmp queryResponseInterval 10s
attr unit s
par SingleCell_StandaloneR.ue[9].ipv4.igmp groupMembershipInterval 260s
attr unit s
par SingleCell_StandaloneR.ue[9].ipv4.igmp otherQuerierPresentInterval 255s
attr unit s
par SingleCell_StandaloneR.ue[9].ipv4.igmp startupQueryInterval 31.25s
attr unit s
par SingleCell_StandaloneR.ue[9].ipv4.igmp startupQueryCount 2
par SingleCell_StandaloneR.ue[9].ipv4.igmp lastMemberQueryInterval 1s
attr unit s
par SingleCell_StandaloneR.ue[9].ipv4.igmp lastMemberQueryCount 2
par SingleCell_StandaloneR.ue[9].ipv4.igmp unsolicitedReportInterval 10s
attr unit s
par SingleCell_StandaloneR.ue[9].ipv4.icmp typename "\"inet.networklayer.ipv4.Icmp\""
par SingleCell_StandaloneR.ue[9].ipv4.icmp interfaceTableModule "\"SingleCell_StandaloneR.ue[9].interfaceTable\""
par SingleCell_StandaloneR.ue[9].ipv4.icmp routingTableModule "\"SingleCell_StandaloneR.ue[9].ipv4.routingTable\""
par SingleCell_StandaloneR.ue[9].ipv4.icmp crcMode "\"declared\""
attr enum declared,computed
attr mutable ""
par SingleCell_StandaloneR.ue[9].ipv4.icmp quoteLength 8B
attr mutable ""
attr unit B
par SingleCell_StandaloneR.ue[9].ipv4.mp typename "\"inet.common.MessageDispatcher\""
par SingleCell_StandaloneR.ue[9].ipv4.mp displayStringTextFormat "\"processed %p pk (%l)\""
par SingleCell_StandaloneR.ue[9].ipv4.mp forwardServiceRegistration true
par SingleCell_StandaloneR.ue[9].ipv4.mp forwardProtocolRegistration true
par SingleCell_StandaloneR.ue[9].ipv4.ip typename "\"inet.networklayer.ipv4.Ipv4\""
par SingleCell_StandaloneR.ue[9].ipv4.ip interfaceTableModule "\"SingleCell_StandaloneR.ue[9].interfaceTable\""
par SingleCell_StandaloneR.ue[9].ipv4.ip routingTableModule "\"SingleCell_StandaloneR.ue[9].ipv4.routingTable\""
par SingleCell_StandaloneR.ue[9].ipv4.ip arpModule "\"SingleCell_StandaloneR.ue[9].ipv4.arp\""
par SingleCell_StandaloneR.ue[9].ipv4.ip icmpModule "\"SingleCell_StandaloneR.ue[9].ipv4.icmp\""
par SingleCell_StandaloneR.ue[9].ipv4.ip crcMode "\"declared\""
attr enum declared,computed
par SingleCell_StandaloneR.ue[9].ipv4.ip timeToLive 32
par SingleCell_StandaloneR.ue[9].ipv4.ip multicastTimeToLive 32
par SingleCell_StandaloneR.ue[9].ipv4.ip fragmentTimeout 60s
attr unit s
par SingleCell_StandaloneR.ue[9].ipv4.ip limitedBroadcast false
par SingleCell_StandaloneR.ue[9].ipv4.ip directBroadcastInterfaces "\"\""
scalar SingleCell_StandaloneR.ue[9].ipv4.ip packetDropAddressResolutionFailed:count 0
attr interpolationmode none
attr recordingmode count
attr source packetDropReasonIsAddressResolutionFailed(packetDropped)
attr title "packet drop: address resolution failed, count"
scalar SingleCell_StandaloneR.ue[9].ipv4.ip packetDropAddressResolutionFailed:sum(packetBytes) 0
attr interpolationmode none
attr recordingmode sum(packetBytes)
attr source packetDropReasonIsAddressResolutionFailed(packetDropped)
attr title "packet drop: address resolution failed, sum(packetBytes)"
scalar SingleCell_StandaloneR.ue[9].ipv4.ip packetDropHopLimitReached:count 0
attr interpolationmode none
attr recordingmode count
attr source packetDropReasonIsHopLimitReached(packetDropped)
attr title "packet drop: hop limit reached, count"
scalar SingleCell_StandaloneR.ue[9].ipv4.ip packetDropHopLimitReached:sum(packetBytes) 0
attr interpolationmode none
attr recordingmode sum(packetBytes)
attr source packetDropReasonIsHopLimitReached(packetDropped)
attr title "packet drop: hop limit reached, sum(packetBytes)"
scalar SingleCell_StandaloneR.ue[9].ipv4.ip packetDropForwardingDisabled:count 0
attr interpolationmode none
attr recordingmode count
attr source packetDropReasonIsForwardingDisabled(packetDropped)
attr title "packet drop: forwarding disabled, count"
scalar SingleCell_StandaloneR.ue[9].ipv4.ip packetDropForwardingDisabled:sum(packetBytes) 0
attr interpolationmode none
attr recordingmode sum(packetBytes)
attr source packetDropReasonIsForwardingDisabled(packetDropped)
attr title "packet drop: forwarding disabled, sum(packetBytes)"
scalar SingleCell_StandaloneR.ue[9].ipv4.ip packetDropNoInterfaceFound:count 0
attr interpolationmode none
attr recordingmode count
attr source packetDropReasonIsNoInterfaceFound(packetDropped)
attr title "packet drop: no interface found, count"
scalar SingleCell_StandaloneR.ue[9].ipv4.ip packetDropNoInterfaceFound:sum(packetBytes) 0
attr interpolationmode none
attr recordingmode sum(packetBytes)
attr source packetDropReasonIsNoInterfaceFound(packetDropped)
attr title "packet drop: no interface found, sum(packetBytes)"
scalar SingleCell_StandaloneR.ue[9].ipv4.ip packetDropNoRouteFound:count 0
attr interpolationmode none
attr recordingmode count
attr source packetDropReasonIsNoRouteFound(packetDropped)
attr title "packet drop: no route found, count"
scalar SingleCell_StandaloneR.ue[9].ipv4.ip packetDropNoRouteFound:sum(packetBytes) 0
attr interpolationmode none
attr recordingmode sum(packetBytes)
attr source packetDropReasonIsNoRouteFound(packetDropped)
attr title "packet drop: no route found, sum(packetBytes)"
scalar SingleCell_StandaloneR.ue[9].ipv4.ip packetDropUndefined:count 0
attr interpolationmode none
attr recordingmode count
attr source packetDropReasonIsUndefined(packetDropped)
attr title "packet drop: undefined, count"
scalar SingleCell_StandaloneR.ue[9].ipv4.ip packetDropUndefined:sum(packetBytes) 0
attr interpolationmode none
attr recordingmode sum(packetBytes)
attr source packetDropReasonIsUndefined(packetDropped)
attr title "packet drop: undefined, sum(packetBytes)"
par SingleCell_StandaloneR.ue[9].ipv4.arp typename "\"inet.networklayer.arp.ipv4.Arp\""
par SingleCell_StandaloneR.ue[9].ipv4.arp interfaceTableModule "\"SingleCell_StandaloneR.ue[9].interfaceTable\""
par SingleCell_StandaloneR.ue[9].ipv4.arp routingTableModule "\"SingleCell_StandaloneR.ue[9].ipv4.routingTable\""
par SingleCell_StandaloneR.ue[9].ipv4.arp retryTimeout 1s
attr unit s
par SingleCell_StandaloneR.ue[9].ipv4.arp retryCount 3
par SingleCell_StandaloneR.ue[9].ipv4.arp cacheTimeout 120s
attr unit s
par SingleCell_StandaloneR.ue[9].ipv4.arp proxyArpInterfaces "\"*\""
scalar SingleCell_StandaloneR.ue[9].ipv4.arp arpResolutionFailed:count 0
attr recordingmode count
attr title "ARP failed resolutions, count"
scalar SingleCell_StandaloneR.ue[9].ipv4.arp arpResolutionCompleted:count 0
attr recordingmode count
attr title "ARP completed resolutions, count"
scalar SingleCell_StandaloneR.ue[9].ipv4.arp arpResolutionInitiated:count 0
attr recordingmode count
attr title "ARP initiated resolutions, count"
scalar SingleCell_StandaloneR.ue[9].ipv4.arp arpReplySent:count 0
attr recordingmode count
attr source arpReplySent
attr title "ARP replies sent, count"
scalar SingleCell_StandaloneR.ue[9].ipv4.arp arpReplySent:sum(packetBytes) 0
attr recordingmode sum(packetBytes)
attr source arpReplySent
attr title "ARP replies sent, sum(packetBytes)"
scalar SingleCell_StandaloneR.ue[9].ipv4.arp arpRequestSent:count 0
attr recordingmode count
attr source arpRequestSent
attr title "ARP request sent, count"
scalar SingleCell_StandaloneR.ue[9].ipv4.arp arpRequestSent:sum(packetBytes) 0
attr recordingmode sum(packetBytes)
attr source arpRequestSent
attr title "ARP request sent, sum(packetBytes)"
par SingleCell_StandaloneR.ue[9].ipv4.lp typename "\"inet.common.MessageDispatcher\""
par SingleCell_StandaloneR.ue[9].ipv4.lp displayStringTextFormat "\"processed %p pk (%l)\""
par SingleCell_StandaloneR.ue[9].ipv4.lp forwardServiceRegistration true
par SingleCell_StandaloneR.ue[9].ipv4.lp forwardProtocolRegistration true
par SingleCell_StandaloneR.ue[9].ipv4 typename "\"inet.networklayer.ipv4.Ipv4NetworkLayer\""
par SingleCell_StandaloneR.ue[9].ipv4 forwarding false
par SingleCell_StandaloneR.ue[9].ipv4 multicastForwarding false
par SingleCell_StandaloneR.ue[9].ipv4 interfaceTableModule "\"SingleCell_StandaloneR.ue[9].interfaceTable\""
par SingleCell_StandaloneR.ue[9].ipv4 displayStringTextFormat "\"%i\""
par SingleCell_StandaloneR.ue[9].udp typename "\"inet.transportlayer.udp.Udp\""
par SingleCell_StandaloneR.ue[9].udp interfaceTableModule "\"SingleCell_StandaloneR.ue[9].interfaceTable\""
par SingleCell_StandaloneR.ue[9].udp icmpModule "\"^.ipv4.icmp\""
par SingleCell_StandaloneR.ue[9].udp icmpv6Module "\"^.ipv6.icmpv6\""
par SingleCell_StandaloneR.ue[9].udp crcMode "\"declared\""
attr enum disabled,declared,computed
par SingleCell_StandaloneR.ue[9].udp defaultMulticastLoop true
scalar SingleCell_StandaloneR.ue[9].udp packetReceived:count 0
attr interpolationmode none
attr recordingmode count
attr source packetReceived
attr title "packets received, count"
scalar SingleCell_StandaloneR.ue[9].udp packetReceived:sum(packetBytes) 0
attr interpolationmode none
attr recordingmode sum(packetBytes)
attr source packetReceived
attr title "packets received, sum(packetBytes)"
scalar SingleCell_StandaloneR.ue[9].udp packetSent:count 0
attr interpolationmode none
attr recordingmode count
attr source packetSent
attr title "packets sent, count"
scalar SingleCell_StandaloneR.ue[9].udp packetSent:sum(packetBytes) 0
attr interpolationmode none
attr recordingmode sum(packetBytes)
attr source packetSent
attr title "packets sent, sum(packetBytes)"
scalar SingleCell_StandaloneR.ue[9].udp passedUpPk:count 0
attr interpolationmode none
attr recordingmode count
attr source packetSentToUpper
attr title "packets passed up, count"
scalar SingleCell_StandaloneR.ue[9].udp droppedPkWrongPort:count 0
attr interpolationmode none
attr recordingmode count
attr source packetDropReasonIsNoPortFound(packetDropped)
attr title "packets dropped (wrong port), count"
scalar SingleCell_StandaloneR.ue[9].udp droppedPkBadChecksum:count 0
attr interpolationmode none
attr recordingmode count
attr source packetDropReasonIsIncorrectlyReceived(packetDropped)
attr title "packets dropped (checksum error), count"
par SingleCell_StandaloneR.ue[9].tcp typename "\"inet.transportlayer.tcp.Tcp\""
par SingleCell_StandaloneR.ue[9].tcp crcMode "\"declared\""
attr enum declared,computed
par SingleCell_StandaloneR.ue[9].tcp advertisedWindow 7504
par SingleCell_StandaloneR.ue[9].tcp delayedAcksEnabled false
par SingleCell_StandaloneR.ue[9].tcp nagleEnabled true
par SingleCell_StandaloneR.ue[9].tcp limitedTransmitEnabled false
par SingleCell_StandaloneR.ue[9].tcp increasedIWEnabled false
par SingleCell_StandaloneR.ue[9].tcp sackSupport false
par SingleCell_StandaloneR.ue[9].tcp windowScalingSupport false
par SingleCell_StandaloneR.ue[9].tcp windowScalingFactor -1
par SingleCell_StandaloneR.ue[9].tcp timestampSupport false
par SingleCell_StandaloneR.ue[9].tcp mss 536
par SingleCell_StandaloneR.ue[9].tcp msl 120s
attr unit s
par SingleCell_StandaloneR.ue[9].tcp tcpAlgorithmClass "\"TcpReno\""
attr enum TcpVegas,TcpWestwood,TcpNewReno,TcpReno,TcpTahoe,TcpNoCongestionControl
par SingleCell_StandaloneR.ue[9].tcp useDataNotification false
par SingleCell_StandaloneR.ue[9].tcp dupthresh 3
par SingleCell_StandaloneR.ue[9].tcp initialSsthresh 4294967295
par SingleCell_StandaloneR.ue[9].tcp stopOperationExtraTime 0s
attr unit s
par SingleCell_StandaloneR.ue[9].tcp stopOperationTimeout 2s
attr unit s
par SingleCell_StandaloneR.ue[9].tcp ecnWillingness false
par SingleCell_StandaloneR.ue[9].tcp dctcpGamma 0.0625
par SingleCell_StandaloneR.ue[9].at typename "\"inet.common.MessageDispatcher\""
par SingleCell_StandaloneR.ue[9].at displayStringTextFormat "\"processed %p pk (%l)\""
par SingleCell_StandaloneR.ue[9].at forwardServiceRegistration true
par SingleCell_StandaloneR.ue[9].at forwardProtocolRegistration true
par SingleCell_StandaloneR.ue[9].tn typename "\"inet.common.MessageDispatcher\""
par SingleCell_StandaloneR.ue[9].tn displayStringTextFormat "\"processed %p pk (%l)\""
par SingleCell_StandaloneR.ue[9].tn forwardServiceRegistration true
par SingleCell_StandaloneR.ue[9].tn forwardProtocolRegistration true
par SingleCell_StandaloneR.ue[9].nl typename "\"inet.common.MessageDispatcher\""
par SingleCell_StandaloneR.ue[9].nl displayStringTextFormat "\"processed %p pk (%l)\""
par SingleCell_StandaloneR.ue[9].nl forwardServiceRegistration true
par SingleCell_StandaloneR.ue[9].nl forwardProtocolRegistration true
par SingleCell_StandaloneR.ue[9] typename "\"simu5g.nodes.NR.NRUe\""
par SingleCell_StandaloneR.ue[9] numApps 0
par SingleCell_StandaloneR.ue[9] hasUdp true
par SingleCell_StandaloneR.ue[9] hasTcp true
par SingleCell_StandaloneR.ue[9] hasSctp false
par SingleCell_StandaloneR.ue[9] nodeType "\"UE\""
par SingleCell_StandaloneR.ue[9] masterId 1
attr mutable ""
par SingleCell_StandaloneR.ue[9] macNodeId 1034
attr mutable ""
par SingleCell_StandaloneR.ue[9] macCellId 1
attr mutable ""
par SingleCell_StandaloneR.ue[9] nicType "\"NRNicUe\""
par SingleCell_StandaloneR.ue[9] hasIpv4 true
par SingleCell_StandaloneR.ue[9] hasIpv6 false
par SingleCell_StandaloneR.ue[9] numEthInterfaces 0
par SingleCell_StandaloneR.ue[9] extHostAddress "\"\""
par SingleCell_StandaloneR.ue[9] numLoInterfaces 1
par SingleCell_StandaloneR.ue[9] numPcapRecorders 0
par SingleCell_StandaloneR.ue[9] hasRNISupport false
par SingleCell_StandaloneR.ue[9] nrMasterId 1
attr mutable ""
par SingleCell_StandaloneR.ue[9] nrMacNodeId 2058
attr mutable ""
par SingleCell_StandaloneR.ue[9] nrMacCellId 1
attr mutable ""
par SingleCell_StandaloneR typename "\"simu5g.simulations.NR.networks.SingleCell_StandaloneR\""
par SingleCell_StandaloneR numUe 10
par SingleCell_StandaloneR numBgCells 0

